@<TRIPOS>MOLECULE
DB00172
   17    17     0     0     0
SMALL
USER_CHARGES

@<TRIPOS>ATOM
      1 O1          2.7413    0.6518   -0.1387 O.3       1 <0>        -0.6500
      2 H1          3.6201    0.4342    0.2369 H         1 <0>         0.5000
      3 O2          2.4466   -1.3680    0.7597 O.2       1 <0>        -0.5700
      4 N1         -0.3603   -1.2237    0.2875 N.3       1 <0>        -0.9000
      5 H2         -0.2451   -2.1652   -0.0827 H         1 <0>         0.3600
      6 C1          0.5543   -0.2798   -0.3801 C.3       1 <0>         0.3310
      7 H3          0.5893   -0.4995   -1.4548 H         1 <0>         0.0000
      8 C2         -0.0882    1.0826   -0.1313 C.3       1 <0>         0.0000
      9 H4          0.4172    1.6619    0.6490 H         1 <0>         0.0000
     10 H5         -0.0755    1.6811   -1.0493 H         1 <0>         0.0000
     11 C3         -1.5239    0.7841    0.2889 C.3       1 <0>         0.0000
     12 H6         -2.2493    1.3827   -0.2709 H         1 <0>         0.0000
     13 H7         -1.6498    1.0114    1.3545 H         1 <0>         0.0000
     14 C4         -1.6990   -0.7022    0.0417 C.3       1 <0>         0.2700
     15 H8         -2.0036   -0.8937   -0.9940 H         1 <0>         0.0000
     16 H9         -2.4390   -1.1456    0.7126 H         1 <0>         0.0000
     17 C5          1.9648   -0.4119    0.1711 C.2       1 <0>         0.6590
@<TRIPOS>BOND
     1    1    2 1
     2    1   17 1
     3    3   17 2
     4    4    5 1
     5    4    6 1
     6    4   14 1
     7    6    7 1
     8    6    8 1
     9    6   17 1
    10    8    9 1
    11    8   10 1
    12    8   11 1
    13   11   12 1
    14   11   13 1
    15   11   14 1
    16   14   15 1
    17   14   16 1
