@<TRIPOS>MOLECULE
DB00138
   26    25     0     0     0
SMALL
USER_CHARGES

@<TRIPOS>ATOM
      1 C1          4.0026   -0.3622   -0.3555 C.2       1 <0>         0.6590
      2 C2          2.7327   -0.4173    0.4891 C.3       1 <0>         0.3310
      3 H1          2.9514   -1.1039    1.3149 H         1 <0>         0.0000
      4 O1          4.3792   -1.2057   -1.1541 O.2       1 <0>        -0.5700
      5 N1          2.4327    0.9047    1.0905 N.3       1 <0>        -0.9900
      6 H2          2.1044    1.5278    0.3504 H         1 <0>         0.3600
      7 H3          3.3299    1.3101    1.3800 H         1 <0>         0.3600
      8 S1          1.0183    0.1533   -1.6675 S.3       1 <0>        -0.2300
      9 C3          1.5445   -0.9662   -0.3103 C.3       1 <0>         0.2300
     10 H4          0.7080   -1.1277    0.3787 H         1 <0>         0.0000
     11 H5          1.7955   -1.9341   -0.7572 H         1 <0>         0.0000
     12 O2          4.7678    0.7239   -0.0930 O.3       1 <0>        -0.6500
     13 H6          5.5595    0.6204   -0.6637 H         1 <0>         0.5000
     14 C4         -4.0068    0.3515   -0.3481 C.2       1 <0>         0.6590
     15 C5         -2.7332    0.4140    0.4897 C.3       1 <0>         0.3310
     16 H7         -2.9560    1.0915    1.3224 H         1 <0>         0.0000
     17 O3         -4.3971    1.1959   -1.1383 O.2       1 <0>        -0.5700
     18 N2         -2.4147   -0.9090    1.0787 N.3       1 <0>        -0.9900
     19 H8         -2.0836   -1.5218    0.3306 H         1 <0>         0.3600
     20 H9         -3.3044   -1.3273    1.3713 H         1 <0>         0.3600
     21 S2         -1.0193   -0.1192   -1.6772 S.3       1 <0>        -0.2300
     22 C6         -1.5557    0.9850   -0.3115 C.3       1 <0>         0.2300
     23 H10        -0.7188    1.1551    0.3746 H         1 <0>         0.0000
     24 H11        -1.8237    1.9515   -0.7528 H         1 <0>         0.0000
     25 O4         -4.7587   -0.7440   -0.0879 O.3       1 <0>        -0.6500
     26 H12        -5.5545   -0.6462   -0.6538 H         1 <0>         0.5000
@<TRIPOS>BOND
     1    1    2 1
     2    1    4 2
     3    1   12 1
     4    2    3 1
     5    2    5 1
     6    2    9 1
     7    5    6 1
     8    5    7 1
     9    8    9 1
    10    8   21 1
    11    9   10 1
    12    9   11 1
    13   12   13 1
    14   14   15 1
    15   14   17 2
    16   14   25 1
    17   15   16 1
    18   15   18 1
    19   15   22 1
    20   18   19 1
    21   18   20 1
    22   21   22 1
    23   22   23 1
    24   22   24 1
    25   25   26 1
