@<TRIPOS>MOLECULE
DB00874
   28    28     0     0     0
SMALL
USER_CHARGES

@<TRIPOS>ATOM
      1 O1          0.2606    0.2833   -0.0369 O.3       1 <0>        -0.3630
      2 O2          2.8031    1.1340   -1.3010 O.3       1 <0>        -0.6800
      3 H1          3.6774    1.5735   -1.2590 H         1 <0>         0.4000
      4 O3          5.0196    0.7746    0.2216 O.3       1 <0>        -0.6800
      5 H2          5.8482    0.3148    0.4463 H         1 <0>         0.4000
      6 O4         -1.9242    1.7221    0.0990 O.3       1 <0>        -0.3630
      7 C1          2.6557    0.5132   -0.0141 C.3       1 <0>         0.2800
      8 H3          2.4736    1.3249    0.6996 H         1 <0>         0.0000
      9 C2          1.4797   -0.4655   -0.0377 C.3       1 <0>         0.2800
     10 H4          1.5144   -1.0981    0.8566 H         1 <0>         0.0000
     11 H5          1.5318   -1.0781   -0.9464 H         1 <0>         0.0000
     12 C3          3.9719   -0.1940    0.3043 C.3       1 <0>         0.2800
     13 H6          4.1870   -0.9761   -0.4311 H         1 <0>         0.0000
     14 H7          3.9617   -0.6239    1.3105 H         1 <0>         0.0000
     15 C4         -0.9229   -0.4144   -0.0314 C.ar      1 <0>         0.0820
     16 C5         -2.1003    0.3604    0.0375 C.ar      1 <0>         0.0820
     17 C6         -1.0188   -1.8098   -0.0936 C.ar      1 <0>        -0.1500
     18 H8         -0.1416   -2.4439   -0.1525 H         1 <0>         0.1500
     19 C7         -3.3470   -0.2760    0.0471 C.ar      1 <0>        -0.1500
     20 H9         -4.2749    0.2824    0.1045 H         1 <0>         0.1500
     21 C8         -2.2690   -2.4320   -0.0845 C.ar      1 <0>        -0.1500
     22 H10        -2.3343   -3.5168   -0.1346 H         1 <0>         0.1500
     23 C9         -3.4304   -1.6688   -0.0138 C.ar      1 <0>        -0.1500
     24 H11        -4.4019   -2.1559   -0.0058 H         1 <0>         0.1500
     25 C10        -3.0871    2.5371    0.1023 C.3       1 <0>         0.2800
     26 H12        -2.7638    3.5821    0.1189 H         1 <0>         0.0000
     27 H13        -3.6889    2.3629    1.0012 H         1 <0>         0.0000
     28 H14        -3.6796    2.3881   -0.8071 H         1 <0>         0.0000
@<TRIPOS>BOND
     1    1    9 1
     2    1   15 1
     3    2    3 1
     4    2    7 1
     5    4    5 1
     6    4   12 1
     7    6   16 1
     8    6   25 1
     9    7    8 1
    10    7    9 1
    11    7   12 1
    12    9   10 1
    13    9   11 1
    14   12   13 1
    15   12   14 1
    16   15   16 ar
    17   15   17 ar
    18   16   19 ar
    19   17   18 1
    20   17   21 ar
    21   19   20 1
    22   19   23 ar
    23   21   22 1
    24   21   23 ar
    25   23   24 1
    26   25   26 1
    27   25   27 1
    28   25   28 1
