@<TRIPOS>MOLECULE
DB00968
   28    28     0     0     0
SMALL
USER_CHARGES

@<TRIPOS>ATOM
      1 C1          2.4982   -1.4744    0.2680 C.ar      1 <0>        -0.1500
      2 H1          2.9731   -2.4514    0.2517 H         1 <0>         0.1500
      3 C2          3.2476   -0.3299    0.0333 C.ar      1 <0>         0.0820
      4 C3          0.5192   -0.0926    0.6000 C.ar      1 <0>        -0.1440
      5 C4          1.2903    1.0525    0.3449 C.ar      1 <0>        -0.1500
      6 H2          0.8439    2.0419    0.3693 H         1 <0>         0.1500
      7 C5          1.1352   -1.3546    0.5528 C.ar      1 <0>        -0.1500
      8 H3          0.5576   -2.2557    0.7498 H         1 <0>         0.1500
      9 C6         -3.3469    0.1549    0.3092 C.2       1 <0>         0.6590
     10 O1         -4.1206   -0.7418    0.6057 O.2       1 <0>        -0.5700
     11 C7         -1.9333   -0.0071   -0.2775 C.3       1 <0>         0.3310
     12 C8         -0.9533    0.0334    0.9239 C.3       1 <0>         0.1440
     13 H4         -1.0994    0.9657    1.4892 H         1 <0>         0.0000
     14 H5         -1.2193   -0.7579    1.6395 H         1 <0>         0.0000
     15 O2         -3.6727    1.4475    0.5565 O.3       1 <0>        -0.6500
     16 H6         -4.5828    1.4084    0.9192 H         1 <0>         0.5000
     17 O3          4.5917   -0.4502   -0.1718 O.3       1 <0>        -0.5320
     18 H7          5.0062    0.2649    0.3451 H         1 <0>         0.4500
     19 C9          2.6418    0.9223    0.0439 C.ar      1 <0>         0.0820
     20 O4          3.3543    2.0447   -0.2640 O.3       1 <0>        -0.5320
     21 H8          4.0225    1.7777   -0.9215 H         1 <0>         0.4500
     22 C10        -1.8667   -1.3291   -1.0516 C.3       1 <0>         0.0000
     23 H9         -1.9852   -2.1871   -0.3786 H         1 <0>         0.0000
     24 H10        -0.9155   -1.4484   -1.5810 H         1 <0>         0.0000
     25 H11        -2.6679   -1.3943   -1.7974 H         1 <0>         0.0000
     26 N1         -1.7033    1.0862   -1.2477 N.3       1 <0>        -0.9900
     27 H12        -0.7243    1.0989   -1.5312 H         1 <0>         0.3600
     28 H13        -1.8904    1.9753   -0.7798 H         1 <0>         0.3600
@<TRIPOS>BOND
     1    1    2 1
     2    1    3 ar
     3    1    7 ar
     4    3   17 1
     5    3   19 ar
     6    4    5 ar
     7    4    7 ar
     8    4   12 1
     9    5    6 1
    10    5   19 ar
    11    7    8 1
    12    9   10 2
    13    9   11 1
    14    9   15 1
    15   11   12 1
    16   11   22 1
    17   11   26 1
    18   12   13 1
    19   12   14 1
    20   15   16 1
    21   17   18 1
    22   19   20 1
    23   20   21 1
    24   22   23 1
    25   22   24 1
    26   22   25 1
    27   26   27 1
    28   26   28 1
