@<TRIPOS>MOLECULE
DB00556
   11    10     0     0     0
SMALL
USER_CHARGES

@<TRIPOS>ATOM
      1 F1          1.2890   -1.0289   -1.0902 F         1 <0>        -0.3400
      2 C1          1.2315   -0.2311   -0.0002 C.3       1 <0>         1.0200
      3 C2         -0.0002    0.6375    0.0003 C.3       1 <0>         0.6800
      4 C3         -1.2320   -0.2314    0.0001 C.3       1 <0>         1.0200
      5 F2         -2.3593    0.5191   -0.0009 F         1 <0>        -0.3400
      6 F3         -1.2895   -1.0298    1.0887 F         1 <0>        -0.3400
      7 F4          0.0007    1.4543    1.0894 F         1 <0>        -0.3400
      8 F5          1.2880   -1.0325    1.0878 F         1 <0>        -0.3400
      9 F6          2.3598    0.5179    0.0016 F         1 <0>        -0.3400
     10 F7          0.0007    1.4557   -1.0882 F         1 <0>        -0.3400
     11 F8         -1.2886   -1.0307   -1.0885 F         1 <0>        -0.3400
@<TRIPOS>BOND
     1    1    2 1
     2    2    3 1
     3    2    8 1
     4    2    9 1
     5    3    4 1
     6    3    7 1
     7    3   10 1
     8    4    5 1
     9    4    6 1
    10    4   11 1
