@<TRIPOS>MOLECULE
DB00891
   28    29     0     0     0
SMALL
USER_CHARGES

@<TRIPOS>ATOM
      1 S1          0.2335    2.0624   -1.1681 S.o2      1 <0>         1.4470
      2 O1         -0.1961    3.4268   -0.9234 O.2       1 <0>        -0.6500
      3 O2          0.5968    1.6500   -2.5081 O.2       1 <0>        -0.6500
      4 N1          1.4901    1.7744   -0.1037 N.pl3     1 <0>        -0.7570
      5 H1          1.7635    2.5404    0.5077 H         1 <0>         0.4200
      6 N2          1.6672   -0.4978   -0.7271 N.ar      1 <0>        -0.6200
      7 N3         -4.2124   -1.3795    0.7971 N.pl3     1 <0>        -0.9000
      8 H2         -4.7064   -1.1477    1.6484 H         1 <0>         0.4000
      9 H3         -4.4933   -2.2064    0.2872 H         1 <0>         0.4000
     10 C1         -1.0715    1.0170   -0.5774 C.ar      1 <0>        -0.0090
     11 C2         -1.4521   -0.1088   -1.3072 C.ar      1 <0>        -0.1500
     12 H4         -0.9353   -0.3813   -2.2239 H         1 <0>         0.1500
     13 C3         -1.7460    1.3657    0.5941 C.ar      1 <0>        -0.1500
     14 H5         -1.4697    2.2544    1.1560 H         1 <0>         0.1500
     15 C4          2.1503    0.5291   -0.0065 C.ar      1 <0>         0.5090
     16 C5         -3.1775   -0.5845    0.3402 C.ar      1 <0>         0.1000
     17 C6         -2.4997   -0.9074   -0.8400 C.ar      1 <0>        -0.1500
     18 H6         -2.7831   -1.7895   -1.4086 H         1 <0>         0.1500
     19 C7         -2.7924    0.5601    1.0486 C.ar      1 <0>        -0.1500
     20 H7         -3.3110    0.8342    1.9633 H         1 <0>         0.1500
     21 C8          3.2445    0.4173    0.8415 C.ar      1 <0>        -0.1500
     22 H8          3.6099    1.2636    1.4107 H         1 <0>         0.1500
     23 C9          3.8778   -0.8184    0.9469 C.ar      1 <0>        -0.1500
     24 H9          4.7366   -0.9401    1.6005 H         1 <0>         0.1500
     25 C10         3.4030   -1.8940    0.2063 C.ar      1 <0>        -0.1500
     26 H10         3.8776   -2.8668    0.2639 H         1 <0>         0.1500
     27 C11         2.3039   -1.6838   -0.6097 C.ar      1 <0>         0.1600
     28 H11         1.8914   -2.4893   -1.2089 H         1 <0>         0.1500
@<TRIPOS>BOND
     1    1    2 2
     2    1    3 2
     3    1    4 1
     4    1   10 1
     5    4    5 1
     6    4   15 1
     7    6   15 ar
     8    6   27 ar
     9    7    8 1
    10    7    9 1
    11    7   16 1
    12   10   11 ar
    13   10   13 ar
    14   11   12 1
    15   11   17 ar
    16   13   14 1
    17   13   19 ar
    18   15   21 ar
    19   16   17 ar
    20   16   19 ar
    21   17   18 1
    22   19   20 1
    23   21   22 1
    24   21   23 ar
    25   23   24 1
    26   23   25 ar
    27   25   26 1
    28   25   27 ar
    29   27   28 1
