@<TRIPOS>MOLECULE
DB00399
   26    26     0     0     0
SMALL
USER_CHARGES

@<TRIPOS>ATOM
      1 P1          0.4278    1.8064   -0.1803 P.3       1 <0>         1.2420
      2 P2          2.6898   -0.1943    0.4133 P.3       1 <0>         1.2420
      3 O1          0.9539   -0.3741   -1.4995 O.3       1 <0>        -0.6800
      4 H1          0.1592    0.0415   -1.9111 H         1 <0>         0.4000
      5 O2          2.8321   -1.7643    0.7317 O.3       1 <0>        -0.7710
      6 H2          3.7353   -2.0186    1.0101 H         1 <0>         0.5000
      7 O3          3.4647   -0.1184   -0.9989 O.3       1 <0>        -0.7710
      8 H3          2.8264   -0.2731   -1.7379 H         1 <0>         0.5000
      9 O4         -0.3172    2.1485    1.1972 O.3       1 <0>        -0.7710
     10 H4         -0.5448    3.0909    1.3250 H         1 <0>         0.5000
     11 O5         -0.7903    1.7494   -1.2350 O.3       1 <0>        -0.7710
     12 H5         -1.1425    2.6205   -1.5081 H         1 <0>         0.5000
     13 O6          3.1983    0.6975    1.4955 O.2       1 <0>        -0.7000
     14 O7          1.4505    2.8128   -0.5871 O.2       1 <0>        -0.7000
     15 N1         -1.3576   -0.8922    0.3059 N.pl3     1 <0>         0.0480
     16 N2         -3.1451   -1.4771   -0.8696 N.2       1 <0>        -0.5650
     17 C1          0.9480    0.0661   -0.1050 C.3       1 <0>         0.2800
     18 C2          0.0275   -0.8368    0.7286 C.3       1 <0>         0.2560
     19 H6          0.3755   -1.8757    0.6975 H         1 <0>         0.0000
     20 H7          0.0434   -0.5242    1.7784 H         1 <0>         0.0000
     21 C3         -2.4148   -0.2523    0.8866 C.2       1 <0>        -0.3020
     22 H8         -2.3091    0.3939    1.7470 H         1 <0>         0.1500
     23 C4         -1.8464   -1.6309   -0.7367 C.2       1 <0>         0.0370
     24 H9         -1.2197   -2.2576   -1.3583 H         1 <0>         0.1500
     25 C5         -3.5076   -0.6207    0.1377 C.2       1 <0>         0.0770
     26 H10        -4.5371   -0.3172    0.2732 H         1 <0>         0.1500
@<TRIPOS>BOND
     1    1    9 1
     2    1   11 1
     3    1   14 2
     4    1   17 1
     5    2    5 1
     6    2    7 1
     7    2   13 2
     8    2   17 1
     9    3    4 1
    10    3   17 1
    11    5    6 1
    12    7    8 1
    13    9   10 1
    14   11   12 1
    15   15   18 1
    16   15   21 1
    17   15   23 1
    18   16   23 2
    19   16   25 1
    20   17   18 1
    21   18   19 1
    22   18   20 1
    23   21   22 1
    24   21   25 2
    25   23   24 1
    26   25   26 1
