@<TRIPOS>MOLECULE
DB00885
   25    27     0     0     0
SMALL
USER_CHARGES

@<TRIPOS>ATOM
      1 O1         -1.4583    2.1175   -0.2385 O.2       1 <0>        -0.5700
      2 N1          0.4965    0.8887   -0.0552 N.am      1 <0>        -0.2290
      3 N2          0.3945   -1.4752    0.0017 N.2       1 <0>        -0.6210
      4 N3         -3.9116    0.7061    0.5325 N.2       1 <0>        -0.7070
      5 N4         -3.8089   -1.2446   -0.6009 N.2       1 <0>        -0.2270
      6 N5         -5.1089    0.1862    0.2337 N.pl3     1 <0>         0.5660
      7 H1         -5.9765    0.6430    0.4962 H         1 <0>         0.2700
      8 N6         -5.0953   -0.9741   -0.4304 N.2       1 <0>        -0.4180
      9 C1          1.0840   -0.3753   -0.0069 C.2       1 <0>         0.4960
     10 C2          2.5813   -0.4401    0.0311 C.2       1 <0>        -0.1240
     11 C3         -0.8954    1.0295   -0.1095 C.2       1 <0>         0.6160
     12 C4         -1.6785   -0.2354   -0.0434 C.2       1 <0>         0.0600
     13 C5          1.2814    2.0372   -0.0623 C.2       1 <0>        -0.0410
     14 H2          0.7666    2.9928   -0.1018 H         1 <0>         0.1500
     15 C6          3.2768    0.7060    0.0231 C.2       1 <0>        -0.1500
     16 H3          4.3626    0.7068    0.0504 H         1 <0>         0.1500
     17 C7         -0.9654   -1.3697   -0.0129 C.2       1 <0>         0.0210
     18 H4         -1.4776   -2.3295    0.0258 H         1 <0>         0.1500
     19 C8          2.6160    1.9797   -0.0242 C.2       1 <0>        -0.1500
     20 H5          3.2195    2.8819   -0.0312 H         1 <0>         0.1500
     21 C9          3.2239   -1.7904    0.0785 C.3       1 <0>         0.1380
     22 H6          2.9015   -2.3398    0.9691 H         1 <0>         0.0000
     23 H7          4.3170   -1.7202    0.1128 H         1 <0>         0.0000
     24 H8          2.9596   -2.3743   -0.8087 H         1 <0>         0.0000
     25 C10        -3.1046   -0.2068   -0.0288 C.2       1 <0>         0.4700
@<TRIPOS>BOND
     1    1   11 2
     2    2    9 1
     3    2   11 am
     4    2   13 1
     5    3    9 2
     6    3   17 1
     7    4    6 1
     8    4   25 2
     9    5    8 2
    10    5   25 1
    11    6    7 1
    12    6    8 1
    13    9   10 1
    14   10   15 2
    15   10   21 1
    16   11   12 1
    17   12   17 2
    18   12   25 1
    19   13   14 1
    20   13   19 2
    21   15   16 1
    22   15   19 1
    23   17   18 1
    24   19   20 1
    25   21   22 1
    26   21   23 1
    27   21   24 1
