@<TRIPOS>MOLECULE
DB00658
   21    20     0     0     0
SMALL
USER_CHARGES

@<TRIPOS>ATOM
      1 Cl1        -2.4266   -2.6982   -0.0539 Cl        1 <0>        -0.2900
      2 O1         -3.0669    0.4454    1.0229 O.3       1 <0>        -0.2960
      3 N1          1.4495   -1.5932    0.2006 N.3       1 <0>        -0.9900
      4 H1          1.6519   -2.2570    0.9477 H         1 <0>         0.3600
      5 H2          1.7494   -2.0507   -0.6595 H         1 <0>         0.3600
      6 C1         -1.8628   -0.1517    0.5265 C.3       1 <0>        -0.0470
      7 H3         -1.1113   -0.4761    1.2344 H         1 <0>         0.1000
      8 C2         -2.1243    1.3255    0.3942 C.3       1 <0>        -0.0520
      9 H4         -2.3854    1.7300   -0.5752 H         1 <0>         0.1000
     10 H5         -1.5738    2.0035    1.0344 H         1 <0>         0.1000
     11 C3         -2.0403   -1.0640   -0.6348 C.3       1 <0>         0.3850
     12 H6         -1.1216   -1.1230   -1.2249 H         1 <0>         0.0000
     13 H7         -2.8538   -0.7435   -1.2927 H         1 <0>         0.0000
     14 C4          2.2447   -0.3910    0.4073 C.3       1 <0>         0.4080
     15 H8          2.0601   -0.0117    1.4183 H         1 <0>         0.0000
     16 H9          3.3097   -0.6402    0.3380 H         1 <0>         0.0000
     17 C5          1.9062    0.6396   -0.6221 C.2       1 <0>        -0.2880
     18 H10         2.0127    0.3499   -1.6653 H         1 <0>         0.1500
     19 C6          1.5065    1.8861   -0.3407 C.2       1 <0>        -0.3000
     20 H11         1.2849    2.5894   -1.1373 H         1 <0>         0.1500
     21 H12         1.3915    2.2310    0.6820 H         1 <0>         0.1500
@<TRIPOS>BOND
     1    1   11 1
     2    2    6 1
     3    2    8 1
     4    3    4 1
     5    3    5 1
     6    3   14 1
     7    6    7 1
     8    6    8 1
     9    6   11 1
    10    8    9 1
    11    8   10 1
    12   11   12 1
    13   11   13 1
    14   14   15 1
    15   14   16 1
    16   14   17 1
    17   17   18 1
    18   17   19 2
    19   19   20 1
    20   19   21 1
