@<TRIPOS>MOLECULE
DB00437
   14    15     0     0     0
SMALL
USER_CHARGES

@<TRIPOS>ATOM
      1 O1          1.2939    2.5881    0.0004 O.2       1 <0>        -0.5700
      2 N1         -1.3354   -1.2440    0.0003 N.pl3     1 <0>        -0.4500
      3 H1         -1.6479   -2.2072    0.0002 H         1 <0>         0.4000
      4 N2         -2.1063   -0.1396   -0.0006 N.pl3     1 <0>        -0.5000
      5 H2         -3.1216   -0.1166   -0.0001 H         1 <0>         0.4000
      6 N3          1.0662   -1.4913    0.0006 N.2       1 <0>        -0.6610
      7 N4          2.3412    0.5383   -0.0000 N.2       1 <0>        -0.6610
      8 C1         -0.0132    0.6711    0.0004 C.2       1 <0>         0.0290
      9 C2         -0.0285   -0.8151    0.0003 C.2       1 <0>         0.4860
     10 C3         -1.3143    0.9833   -0.0001 C.2       1 <0>        -0.0500
     11 H3         -1.7621    1.9669   -0.0005 H         1 <0>         0.1500
     12 C4          1.2420    1.3645    0.0002 C.2       1 <0>         0.7670
     13 C5          2.2270   -0.7538   -0.0004 C.2       1 <0>         0.6010
     14 H4          3.1589   -1.3447   -0.0008 H         1 <0>         0.0600
@<TRIPOS>BOND
     1    1   12 2
     2    2    3 1
     3    2    4 1
     4    2    9 1
     5    4    5 1
     6    4   10 1
     7    6    9 2
     8    6   13 1
     9    7   12 1
    10    7   13 2
    11    8    9 1
    12    8   10 2
    13    8   12 1
    14   10   11 1
    15   13   14 1
