@<TRIPOS>MOLECULE
DB00668
   26    26     0     0     0
SMALL
USER_CHARGES

@<TRIPOS>ATOM
      1 O1         -0.9990   -1.2083   -1.6001 O.3       1 <0>        -0.6800
      2 H1         -1.9615   -1.3506   -1.4794 H         1 <0>         0.4000
      3 O2          3.6076   -1.8462    0.4188 O.3       1 <0>        -0.5320
      4 H2          3.1086   -2.6628    0.2446 H         1 <0>         0.4500
      5 O3          4.6264    0.6274    0.7088 O.3       1 <0>        -0.5320
      6 H3          4.9465   -0.2928    0.8085 H         1 <0>         0.4500
      7 N1         -3.1074   -0.1061   -0.2581 N.3       1 <0>        -0.9000
      8 H4         -3.4009    0.6291   -0.9054 H         1 <0>         0.3600
      9 C1         -0.7630    0.0557   -0.9675 C.3       1 <0>         0.4240
     10 H5         -0.9814    0.8223   -1.7211 H         1 <0>         0.0000
     11 C2          0.6805    0.1852   -0.5321 C.ar      1 <0>        -0.1440
     12 C3         -1.7401    0.1845    0.2197 C.3       1 <0>         0.2700
     13 H6         -1.6835    1.1862    0.6625 H         1 <0>         0.0000
     14 H7         -1.4695   -0.5487    0.9896 H         1 <0>         0.0000
     15 C4          1.4705   -0.9452   -0.2607 C.ar      1 <0>        -0.1500
     16 H8          1.0454   -1.9380   -0.3804 H         1 <0>         0.1500
     17 C5          1.2426    1.4667   -0.3666 C.ar      1 <0>        -0.1500
     18 H9          0.6500    2.3571   -0.5662 H         1 <0>         0.1500
     19 C6          2.7899   -0.7834    0.1508 C.ar      1 <0>         0.0820
     20 C7          2.5670    1.6194    0.0515 C.ar      1 <0>        -0.1500
     21 H10         2.9975    2.6087    0.1740 H         1 <0>         0.1500
     22 C8          3.3292    0.4902    0.3050 C.ar      1 <0>         0.0820
     23 C9         -4.0448   -0.1290    0.8602 C.3       1 <0>         0.2700
     24 H11        -3.7897   -0.9188    1.5740 H         1 <0>         0.0000
     25 H12        -5.0519   -0.3354    0.4864 H         1 <0>         0.0000
     26 H13        -4.0689    0.8327    1.3833 H         1 <0>         0.0000
@<TRIPOS>BOND
     1    1    2 1
     2    1    9 1
     3    3    4 1
     4    3   19 1
     5    5    6 1
     6    5   22 1
     7    7    8 1
     8    7   12 1
     9    7   23 1
    10    9   10 1
    11    9   11 1
    12    9   12 1
    13   11   15 ar
    14   11   17 ar
    15   12   13 1
    16   12   14 1
    17   15   16 1
    18   15   19 ar
    19   17   18 1
    20   17   20 ar
    21   19   22 ar
    22   20   21 1
    23   20   22 ar
    24   23   24 1
    25   23   25 1
    26   23   26 1
