@<TRIPOS>MOLECULE
DB00709
   26    27     0     0     0
SMALL
USER_CHARGES

@<TRIPOS>ATOM
      1 S1          2.7085    1.5009   -0.8760 S.3       1 <0>        -0.4600
      2 O1          1.3485   -0.2491    0.5758 O.3       1 <0>        -0.5600
      3 O2          4.9848   -0.5727    0.2022 O.3       1 <0>        -0.6800
      4 H1          5.5114   -1.3458   -0.0637 H         1 <0>         0.4000
      5 O3         -1.6465    2.5102    0.7013 O.2       1 <0>        -0.5700
      6 N1         -0.9268    0.3897    0.2220 N.am      1 <0>        -0.4690
      7 N2         -3.2454    0.9324    0.3887 N.2       1 <0>        -0.6610
      8 N3         -4.8477   -0.6463    0.0383 N.pl3     1 <0>        -0.8500
      9 H2         -5.5374    0.0718    0.2230 H         1 <0>         0.4000
     10 H3         -5.1721   -1.5781   -0.1808 H         1 <0>         0.4000
     11 C1          0.4601    0.8464    0.2941 C.3       1 <0>         0.5800
     12 H4          0.5466    1.5672    1.1206 H         1 <0>         0.0000
     13 C2          0.9145    1.4810   -1.0221 C.3       1 <0>         0.2300
     14 H5          0.5013    2.4819   -1.1719 H         1 <0>         0.0000
     15 H6          0.6466    0.8575   -1.8813 H         1 <0>         0.0000
     16 C3          2.6940    0.2328    0.4289 C.3       1 <0>         0.5100
     17 H7          3.0002    0.7082    1.3672 H         1 <0>         0.0000
     18 C4          3.6149   -0.9460    0.1090 C.3       1 <0>         0.2800
     19 H8          3.4135   -1.3506   -0.8904 H         1 <0>         0.0000
     20 H9          3.4363   -1.7582    0.8223 H         1 <0>         0.0000
     21 C5         -1.2376   -0.9132   -0.0934 C.2       1 <0>        -0.0410
     22 H10        -0.4175   -1.5992   -0.2777 H         1 <0>         0.1500
     23 C6         -1.9330    1.3376    0.4559 C.2       1 <0>         0.8410
     24 C7         -2.5018   -1.3220   -0.1718 C.2       1 <0>        -0.1360
     25 H11        -2.7850   -2.3358   -0.4166 H         1 <0>         0.1500
     26 C8         -3.5304   -0.3006    0.0963 C.2       1 <0>         0.4860
@<TRIPOS>BOND
     1    1   13 1
     2    1   16 1
     3    2   11 1
     4    2   16 1
     5    3    4 1
     6    3   18 1
     7    5   23 2
     8    6   11 1
     9    6   21 1
    10    6   23 am
    11    7   23 1
    12    7   26 2
    13    8    9 1
    14    8   10 1
    15    8   26 1
    16   11   12 1
    17   11   13 1
    18   13   14 1
    19   13   15 1
    20   16   17 1
    21   16   18 1
    22   18   19 1
    23   18   20 1
    24   21   22 1
    25   21   24 2
    26   24   25 1
    27   24   26 1
