@<TRIPOS>MOLECULE
DB00939
   30    31     0     0     0
SMALL
USER_CHARGES

@<TRIPOS>ATOM
      1 Cl1        -1.7277   -2.0818    1.3292 Cl        1 <0>        -0.1770
      2 Cl2        -0.1578    1.7726   -2.2362 Cl        1 <0>        -0.1770
      3 O1          4.0082   -2.4071   -0.8016 O.3       1 <0>        -0.6500
      4 H1          3.8843   -3.3312   -1.1047 H         1 <0>         0.5000
      5 O2          1.7803   -2.6559   -0.6511 O.2       1 <0>        -0.5700
      6 N1          0.3035   -0.5539   -0.1882 N.pl3     1 <0>        -0.6000
      7 H2          0.3982   -1.5721   -0.2941 H         1 <0>         0.4000
      8 C1         -1.0126   -0.0757   -0.3743 C.ar      1 <0>         0.1000
      9 C2          1.5136    0.0966    0.1415 C.ar      1 <0>         0.1000
     10 C3         -3.4055   -0.2516    0.2057 C.ar      1 <0>        -0.1440
     11 C4         -2.0766   -0.7090    0.3139 C.ar      1 <0>         0.1770
     12 C5          2.7547   -0.5588   -0.0401 C.ar      1 <0>         0.0860
     13 C6         -1.3300    1.0120   -1.2113 C.ar      1 <0>         0.1770
     14 C7         -3.6713    0.8514   -0.6135 C.ar      1 <0>        -0.1500
     15 H3         -4.6868    1.2287   -0.7198 H         1 <0>         0.1500
     16 C8          1.5268    1.4104    0.6356 C.ar      1 <0>        -0.1500
     17 H4          0.5956    1.9425    0.8117 H         1 <0>         0.1500
     18 C9         -2.6459    1.4727   -1.3206 C.ar      1 <0>        -0.1500
     19 H5         -2.8836    2.3102   -1.9729 H         1 <0>         0.1500
     20 C10         3.9579    0.1043    0.2536 C.ar      1 <0>        -0.1500
     21 H6          4.9162   -0.3912    0.1183 H         1 <0>         0.1500
     22 C11        -4.5428   -0.9103    0.9367 C.3       1 <0>         0.1440
     23 H7         -5.4960   -0.4126    0.7299 H         1 <0>         0.0000
     24 H8         -4.3799   -0.8640    2.0186 H         1 <0>         0.0000
     25 H9         -4.6455   -1.9545    0.6242 H         1 <0>         0.0000
     26 C12         2.7267    2.0636    0.9273 C.ar      1 <0>        -0.1500
     27 H10         2.7100    3.0822    1.3079 H         1 <0>         0.1500
     28 C13         3.9406    1.4138    0.7323 C.ar      1 <0>        -0.1500
     29 H11         4.8732    1.9221    0.9594 H         1 <0>         0.1500
     30 C14         2.7722   -1.9533   -0.5176 C.2       1 <0>         0.6340
@<TRIPOS>BOND
     1    1   11 1
     2    2   13 1
     3    3    4 1
     4    3   30 1
     5    5   30 2
     6    6    7 1
     7    6    8 1
     8    6    9 1
     9    8   11 ar
    10    8   13 ar
    11    9   12 ar
    12    9   16 ar
    13   10   11 ar
    14   10   14 ar
    15   10   22 1
    16   12   20 ar
    17   12   30 1
    18   13   18 ar
    19   14   15 1
    20   14   18 ar
    21   16   17 1
    22   16   26 ar
    23   18   19 1
    24   20   21 1
    25   20   28 ar
    26   22   23 1
    27   22   24 1
    28   22   25 1
    29   26   27 1
    30   26   28 ar
    31   28   29 1
