@<TRIPOS>MOLECULE
DB00228
   12    11     0     0     0
SMALL
USER_CHARGES

@<TRIPOS>ATOM
      1 Cl1        -2.3255    1.7084   -0.0211 Cl        1 <0>        -0.2900
      2 F1         -0.0839   -1.5367    0.2372 F         1 <0>        -0.3400
      3 F2         -0.2375    0.1632    1.5834 F         1 <0>        -0.3400
      4 F3         -1.9752   -0.3952   -1.4607 F         1 <0>        -0.3400
      5 F4          2.6865    1.1375   -0.5482 F         1 <0>        -0.3400
      6 F5          2.2187   -0.9757   -0.7501 F         1 <0>        -0.3400
      7 O1          0.5574    0.5004   -0.4874 O.3       1 <0>        -0.5600
      8 C1         -0.3840   -0.2139    0.2873 C.3       1 <0>         0.9600
      9 C2         -1.8249    0.0051   -0.1674 C.3       1 <0>         0.6300
     10 C3          1.8657    0.1569   -0.0978 C.3       1 <0>         0.9600
     11 H1         -2.5071   -0.5916    0.4441 H         1 <0>         0.0000
     12 H2          2.0097    0.0416    0.9808 H         1 <0>         0.0000
@<TRIPOS>BOND
     1    1    9 1
     2    2    8 1
     3    3    8 1
     4    4    9 1
     5    5   10 1
     6    6   10 1
     7    7    8 1
     8    7   10 1
     9    8    9 1
    10    9   11 1
    11   10   12 1
