@<TRIPOS>MOLECULE
DB00888
   19    18     0     0     0
SMALL
USER_CHARGES

@<TRIPOS>ATOM
      1 Cl1         3.8786   -1.1621   -0.1010 Cl        1 <0>        -0.2900
      2 Cl2        -3.8776   -1.1636   -0.0984 Cl        1 <0>        -0.2900
      3 N1         -0.0004    0.0748    0.2376 N.3       1 <0>        -0.8100
      4 C1          1.2091   -0.6313   -0.2462 C.3       1 <0>         0.2700
      5 H1          1.1022   -1.7014   -0.0271 H         1 <0>         0.0000
      6 H2          1.2975   -0.5384   -1.3371 H         1 <0>         0.0000
      7 C2         -1.2087   -0.6329   -0.2450 C.3       1 <0>         0.2700
      8 H3         -1.2964   -0.5434   -1.3360 H         1 <0>         0.0000
      9 H4         -1.1015   -1.7028   -0.0225 H         1 <0>         0.0000
     10 C3         -0.0006    1.4781   -0.1934 C.3       1 <0>         0.2700
     11 H5          0.8705    2.0134    0.1964 H         1 <0>         0.0000
     12 H6         -0.8678    2.0149    0.2033 H         1 <0>         0.0000
     13 H7         -0.0055    1.5732   -1.2842 H         1 <0>         0.0000
     14 C4          2.5007   -0.1617    0.4319 C.3       1 <0>         0.2900
     15 H8          2.4303   -0.2512    1.5199 H         1 <0>         0.0000
     16 H9          2.7472    0.8721    0.1786 H         1 <0>         0.0000
     17 C5         -2.5001   -0.1621    0.4306 C.3       1 <0>         0.2900
     18 H10        -2.7471    0.8710    0.1737 H         1 <0>         0.0000
     19 H11        -2.4305   -0.2467    1.5191 H         1 <0>         0.0000
@<TRIPOS>BOND
     1    1   14 1
     2    2   17 1
     3    3    4 1
     4    3    7 1
     5    3   10 1
     6    4    5 1
     7    4    6 1
     8    4   14 1
     9    7    8 1
    10    7    9 1
    11    7   17 1
    12   10   11 1
    13   10   12 1
    14   10   13 1
    15   14   15 1
    16   14   16 1
    17   17   18 1
    18   17   19 1
