@<TRIPOS>MOLECULE
DB00648
   28    29     0     0     0
SMALL
USER_CHARGES

@<TRIPOS>ATOM
      1 Cl1         1.2466    3.2620    1.5116 Cl        1 <0>        -0.2900
      2 Cl2        -1.6087    3.2099    1.0863 Cl        1 <0>        -0.2900
      3 Cl3        -0.7041    0.9949   -2.4356 Cl        1 <0>        -0.1770
      4 Cl4         4.9888   -2.1304   -0.7317 Cl        1 <0>        -0.1770
      5 C1         -0.0449    0.9339    0.7339 C.3       1 <0>         0.2870
      6 H1         -0.0977    0.7997    1.8276 H         1 <0>         0.0000
      7 C2          1.2456    0.1999    0.3391 C.ar      1 <0>        -0.1440
      8 C3         -1.2809    0.2297    0.1516 C.ar      1 <0>        -0.1440
      9 C4         -0.0566    2.4785    0.5496 C.3       1 <0>         0.5800
     10 H2          0.0919    2.7913   -0.4841 H         1 <0>         0.0000
     11 C5          2.1666    0.7016   -0.5952 C.ar      1 <0>        -0.1500
     12 H3          2.0093    1.6549   -1.0929 H         1 <0>         0.1500
     13 C6          1.5191   -1.0497    0.9316 C.ar      1 <0>        -0.1500
     14 H4          0.8300   -1.4763    1.6578 H         1 <0>         0.1500
     15 C7         -1.6320    0.2077   -1.2109 C.ar      1 <0>         0.1770
     16 C8         -2.1252   -0.4548    1.0542 C.ar      1 <0>        -0.1500
     17 H5         -1.9013   -0.4689    2.1201 H         1 <0>         0.1500
     18 C9          3.3208   -0.0164   -0.9229 C.ar      1 <0>        -0.1500
     19 H6          4.0188    0.3929   -1.6494 H         1 <0>         0.1500
     20 C10         2.6713   -1.7688    0.6039 C.ar      1 <0>        -0.1500
     21 H7          2.8573   -2.7304    1.0740 H         1 <0>         0.1500
     22 C11        -2.7808   -0.4690   -1.6435 C.ar      1 <0>        -0.1500
     23 H8         -3.0467   -0.4828   -2.6978 H         1 <0>         0.1500
     24 C12        -3.2694   -1.1268    0.6182 C.ar      1 <0>        -0.1500
     25 H9         -3.9025   -1.6440    1.3346 H         1 <0>         0.1500
     26 C13         3.5688   -1.2480   -0.3237 C.ar      1 <0>         0.1770
     27 C14        -3.5973   -1.1343   -0.7314 C.ar      1 <0>        -0.1500
     28 H10        -4.4867   -1.6562   -1.0747 H         1 <0>         0.1500
@<TRIPOS>BOND
     1    1    9 1
     2    2    9 1
     3    3   15 1
     4    4   26 1
     5    5    6 1
     6    5    7 1
     7    5    8 1
     8    5    9 1
     9    7   11 ar
    10    7   13 ar
    11    8   15 ar
    12    8   16 ar
    13    9   10 1
    14   11   12 1
    15   11   18 ar
    16   13   14 1
    17   13   20 ar
    18   15   22 ar
    19   16   17 1
    20   16   24 ar
    21   18   19 1
    22   18   26 ar
    23   20   21 1
    24   20   26 ar
    25   22   23 1
    26   22   27 ar
    27   24   25 1
    28   24   27 ar
    29   27   28 1
