@<TRIPOS>MOLECULE
DB00964
   25    26     0     0     0
SMALL
USER_CHARGES

@<TRIPOS>ATOM
      1 Cl1        -1.1989   -3.0744    0.4448 Cl        1 <0>        -0.1770
      2 Cl2        -0.1086    1.9896   -1.3823 Cl        1 <0>        -0.1770
      3 N1          2.9582   -0.7528   -0.5273 N.pl3     1 <0>        -0.8190
      4 H1          3.0786   -1.5134   -1.1775 H         1 <0>         0.4000
      5 N2          0.6711   -0.9345   -0.4650 N.pl3     1 <0>        -0.5500
      6 H2          0.7921   -1.8658   -0.8370 H         1 <0>         0.4000
      7 N3          1.8694    0.7554    0.7522 N.2       1 <0>        -0.6960
      8 N4         -4.6973    0.6228    0.2872 N.pl3     1 <0>        -0.9000
      9 H3         -5.0082    1.5670    0.1012 H         1 <0>         0.4000
     10 H4         -5.3775   -0.0393    0.6375 H         1 <0>         0.4000
     11 C1          4.0594   -0.0248    0.0302 C.3       1 <0>         0.3690
     12 H5          4.6592   -0.6622    0.6856 H         1 <0>         0.0000
     13 H6          4.7005    0.4020   -0.7462 H         1 <0>         0.0000
     14 C2          3.3270    1.0621    0.8241 C.3       1 <0>         0.2460
     15 H7          3.5080    2.0528    0.3944 H         1 <0>         0.0000
     16 H8          3.6535    1.0750    1.8695 H         1 <0>         0.0000
     17 C3          1.7817   -0.2634   -0.0630 C.2       1 <0>         0.5500
     18 C4         -0.6698   -0.5104   -0.3552 C.ar      1 <0>         0.1000
     19 C5         -1.6342   -1.4291    0.1091 C.ar      1 <0>         0.1770
     20 C6         -1.1138    0.7961   -0.6260 C.ar      1 <0>         0.1770
     21 C7         -3.3839    0.2487    0.0752 C.ar      1 <0>         0.1000
     22 C8         -2.9662   -1.0568    0.3229 C.ar      1 <0>        -0.1500
     23 H9         -3.6790   -1.7910    0.6901 H         1 <0>         0.1500
     24 C9         -2.4519    1.1656   -0.4086 C.ar      1 <0>        -0.1500
     25 H10        -2.7694    2.1808   -0.6360 H         1 <0>         0.1500
@<TRIPOS>BOND
     1    1   19 1
     2    2   20 1
     3    3    4 1
     4    3   11 1
     5    3   17 1
     6    5    6 1
     7    5   17 1
     8    5   18 1
     9    7   14 1
    10    7   17 2
    11    8    9 1
    12    8   10 1
    13    8   21 1
    14   11   12 1
    15   11   13 1
    16   11   14 1
    17   14   15 1
    18   14   16 1
    19   18   19 ar
    20   18   20 ar
    21   19   22 ar
    22   20   24 ar
    23   21   22 ar
    24   21   24 ar
    25   22   23 1
    26   24   25 1
