@<TRIPOS>MOLECULE
DB00594
   23    23     0     0     0
SMALL
USER_CHARGES

@<TRIPOS>ATOM
      1 Cl1        -2.4478   -3.1600    0.0120 Cl        1 <0>        -0.1770
      2 O1          1.3140    1.6549    0.3915 O.2       1 <0>        -0.5700
      3 N1         -2.7516    0.8100   -0.0362 N.ar      1 <0>        -0.6200
      4 N2         -0.7889   -1.1960    0.2317 N.ar      1 <0>        -0.6200
      5 N3         -1.1619    2.4820    0.1623 N.pl3     1 <0>        -0.9000
      6 H1         -1.9222    3.1378    0.0676 H         1 <0>         0.4000
      7 H2         -0.1961    2.7849    0.2757 H         1 <0>         0.4000
      8 N4          1.8199   -0.6039    0.5016 N.2       1 <0>        -0.6610
      9 N5         -4.4086   -0.7938   -0.2827 N.pl3     1 <0>        -0.9000
     10 H3         -5.0357   -0.0088   -0.3769 H         1 <0>         0.4000
     11 H4         -4.7404   -1.7451   -0.3323 H         1 <0>         0.4000
     12 N6          3.8768   -1.5261    0.0992 N.pl3     1 <0>        -0.8500
     13 H5          3.5423   -2.4009    0.4805 H         1 <0>         0.4000
     14 H6          4.8258   -1.4763   -0.2321 H         1 <0>         0.4000
     15 N7          3.5976    0.6277   -0.4694 N.pl3     1 <0>        -0.8500
     16 H7          3.0641    1.4950   -0.4546 H         1 <0>         0.4000
     17 H8          4.5212    0.6374   -0.8698 H         1 <0>         0.4000
     18 C1         -0.4824    0.1297    0.2621 C.ar      1 <0>         0.3960
     19 C2         -1.4490    1.1349    0.1339 C.ar      1 <0>         0.4100
     20 C3         -3.0789   -0.5011   -0.0832 C.ar      1 <0>         0.4100
     21 C4         -2.0936   -1.4782    0.0586 C.ar      1 <0>         0.4870
     22 C5          0.9673    0.4723    0.3988 C.2       1 <0>         0.6950
     23 C6          3.0283   -0.4764    0.0616 C.2       1 <0>         0.5500
@<TRIPOS>BOND
     1    1   21 1
     2    2   22 2
     3    3   19 ar
     4    3   20 ar
     5    4   18 ar
     6    4   21 ar
     7    5    6 1
     8    5    7 1
     9    5   19 1
    10    8   22 1
    11    8   23 2
    12    9   10 1
    13    9   11 1
    14    9   20 1
    15   12   13 1
    16   12   14 1
    17   12   23 1
    18   15   16 1
    19   15   17 1
    20   15   23 1
    21   18   19 ar
    22   18   22 1
    23   20   21 ar
