@<TRIPOS>MOLECULE
DB00765
   27    27     0     0     0
SMALL
USER_CHARGES

@<TRIPOS>ATOM
      1 O1         -2.3833    2.1276    0.1255 O.3       1 <0>        -0.6500
      2 H1         -2.3429    2.9060    0.7205 H         1 <0>         0.5000
      3 O2         -1.4299    1.3288    1.9829 O.2       1 <0>        -0.5700
      4 O3          4.5849    0.4460    0.4331 O.3       1 <0>        -0.5320
      5 H2          5.0125   -0.4201    0.5351 H         1 <0>         0.4500
      6 N1         -3.2409   -0.4148   -0.4456 N.3       1 <0>        -0.9900
      7 H3         -3.2555   -1.2020   -1.0918 H         1 <0>         0.3600
      8 H4         -3.4853    0.4175   -0.9900 H         1 <0>         0.3600
      9 C1         -1.8749   -0.2259    0.1084 C.3       1 <0>         0.3310
     10 C2         -0.8525   -0.2019   -1.0561 C.3       1 <0>         0.1440
     11 H5         -0.9450   -1.1249   -1.6473 H         1 <0>         0.0000
     12 H6         -1.1004    0.6076   -1.7573 H         1 <0>         0.0000
     13 C3          0.5992   -0.0411   -0.6585 C.ar      1 <0>        -0.1440
     14 C4         -1.6337   -1.3813    1.0850 C.3       1 <0>         0.0000
     15 H7         -2.4169   -1.4228    1.8524 H         1 <0>         0.0000
     16 H8         -0.6839   -1.2693    1.6202 H         1 <0>         0.0000
     17 H9         -1.6200   -2.3479    0.5692 H         1 <0>         0.0000
     18 C5         -1.8605    1.1149    0.8601 C.2       1 <0>         0.6590
     19 C6          1.1558    1.2351   -0.4974 C.ar      1 <0>        -0.1500
     20 H10         0.5549    2.1270   -0.6624 H         1 <0>         0.1500
     21 C7          1.4105   -1.1672   -0.4497 C.ar      1 <0>        -0.1500
     22 H11         1.0033   -2.1690   -0.5738 H         1 <0>         0.1500
     23 C8          2.4939    1.3812   -0.1286 C.ar      1 <0>        -0.1500
     24 H12         2.9217    2.3718   -0.0039 H         1 <0>         0.1500
     25 C9          2.7508   -1.0216   -0.0812 C.ar      1 <0>        -0.1500
     26 H13         3.3565   -1.9080    0.0746 H         1 <0>         0.1500
     27 C10         3.2814    0.2545    0.0763 C.ar      1 <0>         0.0820
@<TRIPOS>BOND
     1    1    2 1
     2    1   18 1
     3    3   18 2
     4    4    5 1
     5    4   27 1
     6    6    7 1
     7    6    8 1
     8    6    9 1
     9    9   10 1
    10    9   14 1
    11    9   18 1
    12   10   11 1
    13   10   12 1
    14   10   13 1
    15   13   19 ar
    16   13   21 ar
    17   14   15 1
    18   14   16 1
    19   14   17 1
    20   19   20 1
    21   19   23 ar
    22   21   22 1
    23   21   25 ar
    24   23   24 1
    25   23   27 ar
    26   25   26 1
    27   25   27 ar
