@<TRIPOS>MOLECULE
DB00249
   28    29     0     0     0
SMALL
USER_CHARGES

@<TRIPOS>ATOM
      1 I1          2.5808   -3.5991   -1.0916 I         1 <0>        -0.0900
      2 O1         -0.9101   -0.1838    1.2018 O.3       1 <0>        -0.5600
      3 O2         -2.6077    1.5956   -1.4215 O.3       1 <0>        -0.6800
      4 O3         -3.4489   -1.7366    1.2330 O.3       1 <0>        -0.6800
      5 O4          2.4956    2.1559    0.9795 O.2       1 <0>        -0.5700
      6 O5          4.8863   -1.3388   -0.6245 O.2       1 <0>        -0.5700
      7 N1          1.3407    0.2079    0.4787 N.am      1 <0>        -0.4690
      8 N2          3.6549    0.3817    0.1866 N.am      1 <0>        -0.4900
      9 C1         -1.5870    0.8453   -0.7956 C.3       1 <0>         0.2800
     10 C2          0.0755    0.8212    0.8934 C.3       1 <0>         0.5800
     11 C3         -0.5209    1.7221   -0.1845 C.3       1 <0>         0.0000
     12 C4         -2.0943    0.0974    0.4275 C.3       1 <0>         0.2800
     13 C5         -2.8294   -1.1904    0.0695 C.3       1 <0>         0.2800
     14 C6          2.4874    0.9931    0.5819 C.2       1 <0>         0.6900
     15 C7          1.3971   -1.0894   -0.0008 C.2       1 <0>        -0.0410
     16 C8          2.5330   -1.6793   -0.3885 C.2       1 <0>         0.1040
     17 C9          3.7892   -0.8966   -0.2958 C.2       1 <0>         0.6160
     18 H1         -2.1976    2.1352   -2.1206 H         1 <0>         0.4000
     19 H2         -3.8312   -2.5935    0.9767 H         1 <0>         0.4000
     20 H3          4.4976    0.9340    0.2581 H         1 <0>         0.3700
     21 H4         -1.1450    0.1587   -1.5270 H         1 <0>         0.0000
     22 H5          0.2589    1.4014    1.8063 H         1 <0>         0.0000
     23 H6         -0.9835    2.6061    0.2733 H         1 <0>         0.0000
     24 H7          0.2004    2.0904   -0.9214 H         1 <0>         0.0000
     25 H8         -2.7473    0.7318    1.0411 H         1 <0>         0.0000
     26 H9         -2.1342   -1.9410   -0.3209 H         1 <0>         0.0000
     27 H10        -3.6148   -1.0020   -0.6690 H         1 <0>         0.0000
     28 H11         0.4545   -1.6275   -0.0457 H         1 <0>         0.1500
@<TRIPOS>BOND
     1    1   16 1
     2    2   10 1
     3    2   12 1
     4    3    9 1
     5    3   18 1
     6    4   13 1
     7    4   19 1
     8    5   14 2
     9    6   17 2
    10    7   10 1
    11    7   14 am
    12    7   15 1
    13    8   14 am
    14    8   17 am
    15    8   20 1
    16    9   11 1
    17    9   12 1
    18    9   21 1
    19   10   11 1
    20   10   22 1
    21   11   23 1
    22   11   24 1
    23   12   13 1
    24   12   25 1
    25   13   26 1
    26   13   27 1
    27   15   16 2
    28   15   28 1
    29   16   17 1
