@<TRIPOS>MOLECULE
DB00698
   23    24     0     0     0
SMALL
USER_CHARGES

@<TRIPOS>ATOM
      1 O1         -2.4345   -0.9202    0.2749 O.3       1 <0>        -0.2800
      2 O2          3.4759    2.0512    1.2622 O.2       1 <0>        -0.5700
      3 O3          3.2777   -1.3433   -1.7397 O.2       1 <0>        -0.5700
      4 O4         -4.9904   -0.7985    0.8359 O.2       1 <0>        -0.5200
      5 O5         -5.1634    1.2097   -0.0522 O.2       1 <0>        -0.5200
      6 N1          1.8628   -0.7696    0.0685 N.am      1 <0>        -0.2980
      7 N2          3.6473    0.4787   -0.4010 N.am      1 <0>        -0.4900
      8 H1          4.4868    0.8108   -0.8498 H         1 <0>         0.3700
      9 N3          1.0703   -1.8666    0.0334 N.2       1 <0>        -0.5120
     10 N4         -4.5250    0.1978    0.2676 N.pl3     1 <0>         0.9600
     11 C1          1.8208    0.2705    1.0690 C.3       1 <0>         0.3610
     12 H2          0.9346    0.8968    0.9849 H         1 <0>         0.0000
     13 H3          1.9333   -0.1647    2.0642 H         1 <0>         0.0000
     14 C2          3.0625    1.0558    0.6853 C.2       1 <0>         0.5690
     15 C3          2.9540   -0.6293   -0.8022 C.2       1 <0>         0.6900
     16 C4         -1.1385   -0.7199   -0.1424 C.2       1 <0>         0.0550
     17 C5         -0.2288   -1.8152    0.0543 C.2       1 <0>         0.4750
     18 H4         -0.7270   -2.7921    0.1859 H         1 <0>         0.0600
     19 C6         -1.0476    0.5180   -0.7557 C.2       1 <0>        -0.1500
     20 H5         -0.1662    0.9323   -1.2260 H         1 <0>         0.1500
     21 C7         -3.1332    0.1959   -0.0591 C.2       1 <0>         0.2200
     22 C8         -2.3350    1.1185   -0.6870 C.2       1 <0>        -0.1500
     23 H6         -2.6362    2.0832   -1.0709 H         1 <0>         0.1500
@<TRIPOS>BOND
     1    1   16 1
     2    1   21 1
     3    2   14 2
     4    3   15 2
     5    4   10 2
     6    5   10 2
     7    6    9 1
     8    6   11 1
     9    6   15 am
    10    7    8 1
    11    7   14 am
    12    7   15 am
    13    9   17 2
    14   10   21 1
    15   11   12 1
    16   11   13 1
    17   11   14 1
    18   16   17 1
    19   16   19 2
    20   17   18 1
    21   19   20 1
    22   19   22 1
    23   21   22 2
    24   22   23 1
