@<TRIPOS>MOLECULE
DB00861
   26    27     0     0     0
SMALL
USER_CHARGES

@<TRIPOS>ATOM
      1 F1          1.8924    1.9694   -1.3922 F         1 <0>        -0.1900
      2 F2          5.4964   -0.7507   -0.0995 F         1 <0>        -0.1900
      3 O1         -4.0712    1.3652    0.2980 O.3       1 <0>        -0.5320
      4 H1         -4.6140    0.5676    0.0887 H         1 <0>         0.4500
      5 O2         -2.8441   -2.5171   -0.6409 O.3       1 <0>        -0.6500
      6 H2         -3.6205   -3.0960   -0.7935 H         1 <0>         0.5000
      7 O3         -4.5388   -1.0622   -0.3185 O.2       1 <0>        -0.5700
      8 C1          0.0057    0.4337    0.1060 C.ar      1 <0>         0.0000
      9 C2          1.4470    0.1284    0.0528 C.ar      1 <0>         0.0000
     10 C3         -0.9530   -0.5649   -0.1527 C.ar      1 <0>        -0.1500
     11 H3         -0.6236   -1.5694   -0.4127 H         1 <0>         0.1500
     12 C4         -0.4520    1.7256    0.4220 C.ar      1 <0>        -0.1500
     13 H4          0.2590    2.5243    0.6316 H         1 <0>         0.1500
     14 C5         -2.3227   -0.2787   -0.0936 C.ar      1 <0>         0.0860
     15 C6          2.3415    0.9139   -0.6950 C.ar      1 <0>         0.1900
     16 C7          1.9765   -0.9710    0.7552 C.ar      1 <0>        -0.1500
     17 H5          1.3285   -1.6029    1.3598 H         1 <0>         0.1500
     18 C8         -2.7467    1.0173    0.2239 C.ar      1 <0>         0.0820
     19 C9         -1.8175    2.0171    0.4812 C.ar      1 <0>        -0.1500
     20 H6         -2.1509    3.0214    0.7272 H         1 <0>         0.1500
     21 C10         3.7031    0.6278   -0.7518 C.ar      1 <0>        -0.1500
     22 H7          4.3709    1.2477   -1.3380 H         1 <0>         0.1500
     23 C11         3.3411   -1.2665    0.7027 C.ar      1 <0>        -0.1500
     24 H8          3.7434   -2.1150    1.2480 H         1 <0>         0.1500
     25 C12         4.1892   -0.4642   -0.0503 C.ar      1 <0>         0.1900
     26 C13        -3.3398   -1.3006   -0.3585 C.2       1 <0>         0.6340
@<TRIPOS>BOND
     1    1   15 1
     2    2   25 1
     3    3    4 1
     4    3   18 1
     5    5    6 1
     6    5   26 1
     7    7   26 2
     8    8    9 1
     9    8   10 ar
    10    8   12 ar
    11    9   15 ar
    12    9   16 ar
    13   10   11 1
    14   10   14 ar
    15   12   13 1
    16   12   19 ar
    17   14   18 ar
    18   14   26 1
    19   15   21 ar
    20   16   17 1
    21   16   23 ar
    22   18   19 ar
    23   19   20 1
    24   21   22 1
    25   21   25 ar
    26   23   24 1
    27   23   25 ar
