@<TRIPOS>MOLECULE
DB00515
    9     8     0     0     0
SMALL
USER_CHARGES

@<TRIPOS>ATOM
      1 Cl1        -2.2851    1.6946   -0.0907 Cl        1 <0>        -0.2200
      2 Cl2         0.9829    2.4628    0.1777 Cl        1 <0>        -0.2200
      3 Pt1        -0.2640    0.6477   -0.5644 Pt        1 <0>         0.8200
      4 N1          1.1790   -0.5340    0.0897 N.3       1 <0>        -0.9100
      5 H1          1.7023    0.0477    0.7448 H         1 <0>         0.3600
      6 H2          1.8031   -0.6510   -0.7093 H         1 <0>         0.3600
      7 N2         -1.1018   -1.1054   -0.2722 N.3       1 <0>        -0.9100
      8 H3         -1.7258   -0.9631    0.5185 H         1 <0>         0.3600
      9 H4         -0.2905   -1.5993    0.1059 H         1 <0>         0.3600
@<TRIPOS>BOND
     1    1    3 1
     2    2    3 1
     3    3    4 1
     4    3    7 1
     5    4    5 1
     6    4    6 1
     7    7    8 1
     8    7    9 1
