@<TRIPOS>MOLECULE
DB00201
   24    25     0     0     0
SMALL
USER_CHARGES

@<TRIPOS>ATOM
      1 O1          0.6430   -2.4668    0.0033 O.2       1 <0>        -0.5700
      2 O2         -3.1938    0.1518    0.0015 O.2       1 <0>        -0.5700
      3 N1         -1.1520    1.2263    0.0000 N.am      1 <0>        -0.4230
      4 N2          2.1578    0.1244   -0.0010 N.pl3     1 <0>         0.0480
      5 N3         -1.2950   -1.1708   -0.0004 N.am      1 <0>        -0.4200
      6 N4          1.1312    2.0984   -0.0031 N.2       1 <0>        -0.5650
      7 C1          0.8179   -0.1409   -0.0015 C.2       1 <0>        -0.2370
      8 C2          0.2191    1.0851   -0.0021 C.2       1 <0>         0.2900
      9 C3          0.0959   -1.3684    0.0010 C.2       1 <0>         0.7150
     10 C4         -1.9606    0.0828   -0.0002 C.2       1 <0>         0.6900
     11 C5          2.2989    1.4867   -0.0019 C.2       1 <0>         0.0370
     12 H1          3.2634    1.9772   -0.0034 H         1 <0>         0.1500
     13 C6         -1.7467    2.5520    0.0014 C.3       1 <0>         0.3000
     14 H2         -1.4192    3.0915   -0.8933 H         1 <0>         0.0000
     15 H3         -1.4171    3.0900    0.8962 H         1 <0>         0.0000
     16 H4         -2.8385    2.5090    0.0021 H         1 <0>         0.0000
     17 C7          3.2293   -0.8399    0.0011 C.3       1 <0>         0.2560
     18 H5          3.1383   -1.4628   -0.8916 H         1 <0>         0.0000
     19 H6          3.1503   -1.4463    0.9075 H         1 <0>         0.0000
     20 H7          4.1902   -0.3182   -0.0101 H         1 <0>         0.0000
     21 C8         -2.1494   -2.3455   -0.0015 C.3       1 <0>         0.3000
     22 H8         -1.5815   -3.2796   -0.0209 H         1 <0>         0.0000
     23 H9         -2.8040   -2.3085   -0.8789 H         1 <0>         0.0000
     24 H10        -2.7773   -2.3272    0.8956 H         1 <0>         0.0000
@<TRIPOS>BOND
     1    1    9 2
     2    2   10 2
     3    3    8 1
     4    3   10 am
     5    3   13 1
     6    4    7 1
     7    4   11 1
     8    4   17 1
     9    5    9 am
    10    5   10 am
    11    5   21 1
    12    6    8 1
    13    6   11 2
    14    7    8 2
    15    7    9 1
    16   11   12 1
    17   13   14 1
    18   13   15 1
    19   13   16 1
    20   17   18 1
    21   17   19 1
    22   17   20 1
    23   21   22 1
    24   21   23 1
    25   21   24 1
