@<TRIPOS>MOLECULE
DB00531
   29    29     0     0     0
SMALL
USER_CHARGES

@<TRIPOS>ATOM
      1 Cl1        -3.2496   -1.4629    1.8472 Cl        1 <0>        -0.2900
      2 Cl2        -1.3598    2.1981    2.1591 Cl        1 <0>        -0.2900
      3 P1          0.3343    0.0135   -0.7500 P.3       1 <0>         1.5070
      4 O1          1.1347    1.2073   -0.0035 O.3       1 <0>        -0.5510
      5 O2          0.4976    0.1106   -2.2397 O.2       1 <0>        -0.7000
      6 N1         -1.2300    0.0448   -0.2039 N.pl3     1 <0>        -0.8080
      7 N2          1.0192   -1.3167   -0.0459 N.pl3     1 <0>        -0.8980
      8 H1          0.7574   -1.3552    0.9363 H         1 <0>         0.3600
      9 C1          2.4775   -1.3611   -0.1237 C.3       1 <0>         0.2700
     10 H2          2.8406   -2.2619    0.3846 H         1 <0>         0.0000
     11 H3          2.7887   -1.4341   -1.1717 H         1 <0>         0.0000
     12 C2          3.0876   -0.1166    0.5249 C.3       1 <0>         0.0000
     13 H4          4.1792   -0.1470    0.4330 H         1 <0>         0.0000
     14 H5          2.8469   -0.1203    1.5951 H         1 <0>         0.0000
     15 C3          2.5523    1.1675   -0.1036 C.3       1 <0>         0.2800
     16 H6          2.8431    1.2450   -1.1568 H         1 <0>         0.0000
     17 H7          2.9543    2.0385    0.4217 H         1 <0>         0.0000
     18 C4         -2.0670   -1.1096   -0.6098 C.3       1 <0>         0.2700
     19 H8         -3.0497   -0.8015   -0.9909 H         1 <0>         0.0000
     20 H9         -1.5917   -1.6234   -1.4551 H         1 <0>         0.0000
     21 C5         -2.0105    1.2880   -0.3574 C.3       1 <0>         0.2700
     22 H10        -2.0726    1.5440   -1.4231 H         1 <0>         0.0000
     23 H11        -3.0402    1.1209   -0.0150 H         1 <0>         0.0000
     24 C6         -2.2644   -2.1246    0.5182 C.3       1 <0>         0.2900
     25 H12        -2.7915   -3.0044    0.1370 H         1 <0>         0.0000
     26 H13        -1.3144   -2.4610    0.9418 H         1 <0>         0.0000
     27 C7         -1.5047    2.5133    0.4131 C.3       1 <0>         0.2900
     28 H14        -0.5458    2.8753    0.0398 H         1 <0>         0.0000
     29 H15        -2.2214    3.3336    0.2984 H         1 <0>         0.0000
@<TRIPOS>BOND
     1    1   24 1
     2    2   27 1
     3    3    4 1
     4    3    5 2
     5    3    6 1
     6    3    7 1
     7    4   15 1
     8    6   18 1
     9    6   21 1
    10    7    8 1
    11    7    9 1
    12    9   10 1
    13    9   11 1
    14    9   12 1
    15   12   13 1
    16   12   14 1
    17   12   15 1
    18   15   16 1
    19   15   17 1
    20   18   19 1
    21   18   20 1
    22   18   24 1
    23   21   22 1
    24   21   23 1
    25   21   27 1
    26   24   25 1
    27   24   26 1
    28   27   28 1
    29   27   29 1
