@<TRIPOS>MOLECULE
DB00544
   12    12     0     0     0
SMALL
USER_CHARGES

@<TRIPOS>ATOM
      1 F1          2.6878    0.4485    0.0003 F         1 <0>        -0.1500
      2 O1          1.6065   -2.0890    0.0001 O.2       1 <0>        -0.5700
      3 O2         -2.6310   -0.3798    0.0001 O.2       1 <0>        -0.5700
      4 N1         -0.5168   -1.2417    0.0001 N.am      1 <0>        -0.4900
      5 H1         -0.8980   -2.1772    0.0003 H         1 <0>         0.3700
      6 N2         -0.8571    1.0575    0.0003 N.am      1 <0>        -0.5390
      7 H2         -1.5028    1.8386    0.0001 H         1 <0>         0.3700
      8 C1          0.8561   -1.1198   -0.0004 C.2       1 <0>         0.6160
      9 C2         -1.4169   -0.1999   -0.0004 C.2       1 <0>         0.6900
     10 C3          1.3549    0.2668   -0.0001 C.2       1 <0>         0.1640
     11 C4          0.4945    1.2813   -0.0005 C.2       1 <0>        -0.0410
     12 H3          0.8227    2.3147    0.0001 H         1 <0>         0.1500
@<TRIPOS>BOND
     1    1   10 1
     2    2    8 2
     3    3    9 2
     4    4    5 1
     5    4    8 am
     6    4    9 am
     7    6    7 1
     8    6    9 am
     9    6   11 1
    10    8   10 1
    11   10   11 2
    12   11   12 1
