@<TRIPOS>MOLECULE
DB00884
   28    28     0     0     0
SMALL
USER_CHARGES

@<TRIPOS>ATOM
      1 P1          2.8479    0.5187   -0.5788 P.3       1 <0>         1.2420
      2 P2          0.9487   -1.6034    0.6357 P.3       1 <0>         1.2420
      3 O1          1.0950    0.9714    1.2479 O.3       1 <0>        -0.6800
      4 H1          1.7449    0.6138    1.8917 H         1 <0>         0.4000
      5 O2          3.8460    0.2106    0.6401 O.3       1 <0>        -0.7710
      6 H2          4.7897    0.3341    0.4124 H         1 <0>         0.5000
      7 O3          2.8668    2.1320   -0.5497 O.3       1 <0>        -0.7710
      8 H3          2.2414    2.5115    0.1057 H         1 <0>         0.5000
      9 O4          0.6485   -2.4639   -0.6865 O.3       1 <0>        -0.7710
     10 H4          0.6581   -3.4337   -0.5596 H         1 <0>         0.5000
     11 O5         -0.4659   -1.6690    1.3940 O.3       1 <0>        -0.7710
     12 H5         -0.6572   -2.5037    1.8610 H         1 <0>         0.5000
     13 O6          3.2239   -0.0994   -1.8843 O.2       1 <0>        -0.7000
     14 O7          2.0427   -2.1805    1.4733 O.2       1 <0>        -0.7000
     15 N1         -3.4198   -0.7169   -0.9231 N.ar      1 <0>        -0.6200
     16 C1          1.1713    0.1127    0.0792 C.3       1 <0>         0.2800
     17 C2          0.1444    0.5791   -0.9739 C.3       1 <0>         0.1440
     18 H6          0.3169    1.6368   -1.2123 H         1 <0>         0.0000
     19 H7          0.3318    0.0359   -1.9096 H         1 <0>         0.0000
     20 C3         -1.3080    0.4414   -0.6103 C.ar      1 <0>        -0.1440
     21 C4         -1.9163    1.2901    0.3180 C.ar      1 <0>        -0.1500
     22 H8         -1.3430    2.0703    0.8112 H         1 <0>         0.1500
     23 C5         -2.1070   -0.5390   -1.1956 C.ar      1 <0>         0.1600
     24 H9         -1.7002   -1.2374   -1.9220 H         1 <0>         0.1500
     25 C6         -3.2646    1.1312    0.6228 C.ar      1 <0>        -0.1500
     26 H10        -3.7548    1.7767    1.3433 H         1 <0>         0.1500
     27 C7         -3.9646    0.1229   -0.0183 C.ar      1 <0>         0.1600
     28 H11        -5.0166   -0.0421    0.1877 H         1 <0>         0.1500
@<TRIPOS>BOND
     1    1    5 1
     2    1    7 1
     3    1   13 2
     4    1   16 1
     5    2    9 1
     6    2   11 1
     7    2   14 2
     8    2   16 1
     9    3    4 1
    10    3   16 1
    11    5    6 1
    12    7    8 1
    13    9   10 1
    14   11   12 1
    15   15   23 ar
    16   15   27 ar
    17   16   17 1
    18   17   18 1
    19   17   19 1
    20   17   20 1
    21   20   21 ar
    22   20   23 ar
    23   21   22 1
    24   21   25 ar
    25   23   24 1
    26   25   26 1
    27   25   27 ar
    28   27   28 1
