@<TRIPOS>MOLECULE
DB00625
   30    32     0     0     0
SMALL
USER_CHARGES

@<TRIPOS>ATOM
      1 Cl1        -1.5641    4.0376    1.0807 Cl        1 <0>        -0.1770
      2 F1         -0.4878   -0.7002    2.8605 F         1 <0>        -0.3400
      3 F2          0.0314   -2.7074    2.1900 F         1 <0>        -0.3400
      4 F3         -2.0107   -1.9865    1.9776 F         1 <0>        -0.3400
      5 O1         -0.5670   -2.1369   -0.4800 O.3       1 <0>        -0.4300
      6 O2         -2.0445   -3.4528   -1.5624 O.2       1 <0>        -0.5700
      7 N1         -2.6450   -1.3175   -1.1117 N.am      1 <0>        -0.5470
      8 H1         -3.5181   -1.5028   -1.5908 H         1 <0>         0.3700
      9 C1          3.6193   -0.0847    0.2462 C.3       1 <0>         0.0050
     10 H2          4.2274   -0.3594    1.1031 H         1 <0>         0.1000
     11 C2          4.0028    1.1820   -0.4741 C.3       1 <0>        -0.2000
     12 H3          3.2222    1.7913   -0.9176 H         1 <0>         0.1000
     13 H4          4.8376    1.7521   -0.0838 H         1 <0>         0.1000
     14 C3          4.2908   -0.1488   -1.1012 C.3       1 <0>        -0.2000
     15 H5          5.3224   -0.4809   -1.1366 H         1 <0>         0.1000
     16 H6          3.7053   -0.4405   -1.9654 H         1 <0>         0.1000
     17 C4         -0.3730   -1.0625    0.4796 C.3       1 <0>         0.6240
     18 C5          2.2322   -0.4299    0.3394 C.1       1 <0>        -0.1050
     19 C6         -1.2443    0.1428    0.1708 C.ar      1 <0>        -0.1440
     20 C7          1.0669   -0.7121    0.4063 C.1       1 <0>        -0.2000
     21 C8         -2.3925   -0.0542   -0.5928 C.ar      1 <0>         0.1170
     22 C9         -0.7102   -1.6151    1.8849 C.3       1 <0>         1.0200
     23 C10        -0.9982    1.4244    0.6961 C.ar      1 <0>        -0.1500
     24 H7         -0.1244    1.6086    1.3194 H         1 <0>         0.1500
     25 C11        -3.2882    0.9886   -0.8380 C.ar      1 <0>        -0.1500
     26 H8         -4.1841    0.8287   -1.4334 H         1 <0>         0.1500
     27 C12        -1.7725   -2.3694   -1.0572 C.2       1 <0>         0.7800
     28 C13        -1.8830    2.4730    0.4384 C.ar      1 <0>         0.1770
     29 C14        -3.0289    2.2595   -0.3251 C.ar      1 <0>        -0.1500
     30 H9         -3.7217    3.0730   -0.5228 H         1 <0>         0.1500
@<TRIPOS>BOND
     1    1   28 1
     2    2   22 1
     3    3   22 1
     4    4   22 1
     5    5   17 1
     6    5   27 1
     7    6   27 2
     8    7    8 1
     9    7   21 1
    10    7   27 am
    11    9   10 1
    12    9   11 1
    13    9   14 1
    14    9   18 1
    15   11   12 1
    16   11   13 1
    17   11   14 1
    18   14   15 1
    19   14   16 1
    20   17   19 1
    21   17   20 1
    22   17   22 1
    23   18   20 3
    24   19   21 ar
    25   19   23 ar
    26   21   25 ar
    27   23   24 1
    28   23   28 ar
    29   25   26 1
    30   25   29 ar
    31   28   29 ar
    32   29   30 1
