@<TRIPOS>MOLECULE
DB00150
   27    28     0     0     0
SMALL
USER_CHARGES

@<TRIPOS>ATOM
      1 O1         -3.4297    2.0282   -0.1996 O.3       1 <0>        -0.6500
      2 H1         -4.3459    2.2856   -0.4370 H         1 <0>         0.5000
      3 O2         -4.5592    0.1075   -0.0023 O.2       1 <0>        -0.5700
      4 N1          1.7888   -2.0403   -0.2520 N.pl3     1 <0>         0.0330
      5 H2          2.3770   -2.8596   -0.1828 H         1 <0>         0.2700
      6 N2         -2.3754   -0.9845    1.4487 N.3       1 <0>        -0.9900
      7 H3         -1.4912   -1.4695    1.6036 H         1 <0>         0.3600
      8 H4         -3.0058   -1.6640    1.0201 H         1 <0>         0.3600
      9 C1         -0.0087   -0.7473   -0.5276 C.2       1 <0>        -0.1810
     10 C2         -1.4176   -0.3003   -0.7728 C.3       1 <0>         0.1810
     11 H5         -1.9752   -1.1037   -1.2736 H         1 <0>         0.0000
     12 H6         -1.3981    0.5312   -1.4899 H         1 <0>         0.0000
     13 C3          1.1269    0.0887   -0.2759 C.ar      1 <0>         0.0000
     14 C4         -2.1548    0.1315    0.5043 C.3       1 <0>         0.3310
     15 H7         -1.5950    0.9046    1.0429 H         1 <0>         0.0000
     16 C5          2.2314   -0.7473   -0.1038 C.ar      1 <0>        -0.1520
     17 C6          0.4438   -2.0531   -0.5091 C.2       1 <0>        -0.3020
     18 H8         -0.0765   -2.9893   -0.6582 H         1 <0>         0.1500
     19 C7          1.3183    1.4831   -0.1767 C.ar      1 <0>        -0.1500
     20 H9          0.4848    2.1666   -0.3066 H         1 <0>         0.1500
     21 C8          3.5164   -0.2605    0.1653 C.ar      1 <0>        -0.1500
     22 H10         4.3610   -0.9291    0.2960 H         1 <0>         0.1500
     23 C9         -3.5032    0.7140    0.1026 C.2       1 <0>         0.6590
     24 C10         2.5978    1.9870    0.0911 C.ar      1 <0>        -0.1500
     25 H11         2.7455    3.0605    0.1678 H         1 <0>         0.1500
     26 C11         3.6791    1.1253    0.2589 C.ar      1 <0>        -0.1500
     27 H12         4.6654    1.5347    0.4667 H         1 <0>         0.1500
@<TRIPOS>BOND
     1    1    2 1
     2    1   23 1
     3    3   23 2
     4    4    5 1
     5    4   16 1
     6    4   17 1
     7    6    7 1
     8    6    8 1
     9    6   14 1
    10    9   10 1
    11    9   13 1
    12    9   17 2
    13   10   11 1
    14   10   12 1
    15   10   14 1
    16   13   16 ar
    17   13   19 ar
    18   14   15 1
    19   14   23 1
    20   16   21 ar
    21   17   18 1
    22   19   20 1
    23   19   24 ar
    24   21   22 1
    25   21   26 ar
    26   24   25 1
    27   24   26 ar
    28   26   27 1
