@<TRIPOS>MOLECULE
DB00262
   21    20     0     0     0
SMALL
USER_CHARGES

@<TRIPOS>ATOM
      1 Cl1        -5.0111    0.9839   -0.0063 Cl        1 <0>        -0.2900
      2 Cl2         5.3010    0.4596    0.0098 Cl        1 <0>        -0.2900
      3 O1          0.1046    1.7778    0.0052 O.2       1 <0>        -0.5700
      4 O2         -1.9471   -2.2115    0.0071 O.2       1 <0>        -0.1620
      5 N1         -1.0715   -0.2196    0.0028 N.am      1 <0>        -0.1750
      6 N2          1.3090   -0.1601   -0.0069 N.am      1 <0>        -0.7300
      7 N3         -0.9925   -1.4321    0.0039 N.2       1 <0>        -0.0230
      8 C1         -2.3300    0.5366    0.0033 C.3       1 <0>         0.3000
      9 C2          2.5868    0.5320   -0.0041 C.3       1 <0>         0.3000
     10 C3          0.1147    0.5437    0.0012 C.2       1 <0>         0.6900
     11 C4         -3.6711   -0.1933   -0.0026 C.3       1 <0>         0.2900
     12 C5          3.7641   -0.4305    0.0031 C.3       1 <0>         0.2900
     13 H1          1.2949   -1.1722   -0.0145 H         1 <0>         0.3700
     14 H2         -2.2892    1.2032   -0.8694 H         1 <0>         0.0000
     15 H3         -2.2918    1.1950    0.8826 H         1 <0>         0.0000
     16 H4          2.6098    1.1829    0.8771 H         1 <0>         0.0000
     17 H5          2.6158    1.1751   -0.8920 H         1 <0>         0.0000
     18 H6         -3.7910   -0.8118   -0.8965 H         1 <0>         0.0000
     19 H7         -3.7973   -0.8130    0.8896 H         1 <0>         0.0000
     20 H8          3.7412   -1.0718    0.8890 H         1 <0>         0.0000
     21 H9          3.7505   -1.0738   -0.8821 H         1 <0>         0.0000
@<TRIPOS>BOND
     1    1   11 1
     2    2   12 1
     3    3   10 2
     4    4    7 2
     5    5    7 1
     6    5    8 1
     7    5   10 am
     8    6    9 1
     9    6   10 am
    10    6   13 1
    11    8   11 1
    12    8   14 1
    13    8   15 1
    14    9   12 1
    15    9   16 1
    16    9   17 1
    17   11   18 1
    18   11   19 1
    19   12   20 1
    20   12   21 1
