@<TRIPOS>MOLECULE
DB00753
   12    11     0     0     0
SMALL
USER_CHARGES

@<TRIPOS>ATOM
      1 Cl1        -0.4387   -2.0816   -0.3190 Cl        1 <0>        -0.2900
      2 F1         -2.7312   -0.3240    0.6314 F         1 <0>        -0.3400
      3 F2         -2.1402    0.2413   -1.3939 F         1 <0>        -0.3400
      4 F3         -1.7626    1.5907    0.2805 F         1 <0>        -0.3400
      5 F4          1.9347    0.5742    1.1786 F         1 <0>        -0.3400
      6 F5          2.7590    0.8706   -0.8132 F         1 <0>        -0.3400
      7 O1          0.6054    0.3230   -0.6131 O.3       1 <0>        -0.5600
      8 C1         -0.3994   -0.3524    0.1462 C.3       1 <0>         0.5700
      9 H1         -0.1815   -0.3045    1.2182 H         1 <0>         0.0000
     10 C2         -1.7674    0.2896   -0.0957 C.3       1 <0>         1.0200
     11 C3          1.9020    0.1096   -0.0916 C.3       1 <0>         0.9600
     12 H2          2.2199   -0.9365   -0.1284 H         1 <0>         0.0000
@<TRIPOS>BOND
     1    1    8 1
     2    2   10 1
     3    3   10 1
     4    4   10 1
     5    5   11 1
     6    6   11 1
     7    7    8 1
     8    7   11 1
     9    8    9 1
    10    8   10 1
    11   11   12 1
