@<TRIPOS>MOLECULE
DB00133
   14    13     0     0     0
SMALL
USER_CHARGES

@<TRIPOS>ATOM
      1 C1         -1.2604   -0.6008   -0.0694 C.2       1 <0>         0.6590
      2 C2          0.0714    0.0220   -0.4530 C.3       1 <0>         0.3310
      3 H1          0.1454    0.0384   -1.5450 H         1 <0>         0.0000
      4 C3          1.2376   -0.7690    0.1399 C.3       1 <0>         0.2800
      5 H2          1.3585   -1.7371   -0.3569 H         1 <0>         0.0000
      6 H3          1.1020   -0.9495    1.2122 H         1 <0>         0.0000
      7 O1         -2.2559    0.3072    0.0412 O.3       1 <0>        -0.6500
      8 H4         -3.0574   -0.2163    0.2575 H         1 <0>         0.5000
      9 O2         -1.4799   -1.7911    0.0915 O.2       1 <0>        -0.5700
     10 N1          0.1735    1.4290    0.0245 N.3       1 <0>        -0.9900
     11 H5          0.0338    1.4433    1.0379 H         1 <0>         0.3600
     12 H6         -0.6496    1.9218   -0.3388 H         1 <0>         0.3600
     13 O3          2.4404   -0.0166   -0.0314 O.3       1 <0>        -0.6800
     14 H7          2.1406    0.9187   -0.0102 H         1 <0>         0.4000
@<TRIPOS>BOND
     1    1    2 1
     2    1    7 1
     3    1    9 2
     4    2    3 1
     5    2    4 1
     6    2   10 1
     7    4    5 1
     8    4    6 1
     9    4   13 1
    10    7    8 1
    11   10   11 1
    12   10   12 1
    13   13   14 1
