@<TRIPOS>MOLECULE
DB00277
   21    22     0     0     0
SMALL
USER_CHARGES

@<TRIPOS>ATOM
      1 O1         -0.9593   -2.7018   -0.0047 O.2       1 <0>        -0.5700
      2 O2         -1.9198    1.8511   -0.0022 O.2       1 <0>        -0.5700
      3 N1          0.2916    1.2059   -0.0011 N.am      1 <0>        -0.4230
      4 N2         -1.4752   -0.4235   -0.0011 N.am      1 <0>        -0.4200
      5 N3          1.8944   -1.8931   -0.0004 N.pl3     1 <0>         0.0330
      6 N4          2.5452    0.2368    0.0020 N.2       1 <0>        -0.5650
      7 C1          1.1833    0.1565   -0.0001 C.2       1 <0>         0.2900
      8 C2          0.7585   -1.1377   -0.0007 C.2       1 <0>        -0.2370
      9 C3         -0.6070   -1.5274   -0.0031 C.2       1 <0>         0.7150
     10 C4         -1.0849    0.9403   -0.0019 C.2       1 <0>         0.6900
     11 C5          0.7373    2.5857   -0.0006 C.3       1 <0>         0.3000
     12 C6         -2.9044   -0.6798    0.0019 C.3       1 <0>         0.3000
     13 C7          2.9491   -1.0178    0.0023 C.2       1 <0>         0.0370
     14 H1          1.9442   -2.9044   -0.0015 H         1 <0>         0.2700
     15 H2          1.8279    2.6639   -0.0117 H         1 <0>         0.0000
     16 H3          0.3468    3.0839    0.8932 H         1 <0>         0.0000
     17 H4          0.3293    3.0906   -0.8819 H         1 <0>         0.0000
     18 H5         -3.1396   -1.7465    0.0036 H         1 <0>         0.0000
     19 H6         -3.3496   -0.2166   -0.8845 H         1 <0>         0.0000
     20 H7         -3.3462   -0.2146    0.8896 H         1 <0>         0.0000
     21 H8          3.9784   -1.3513    0.0030 H         1 <0>         0.1500
@<TRIPOS>BOND
     1    1    9 2
     2    2   10 2
     3    3    7 1
     4    3   10 am
     5    3   11 1
     6    4    9 am
     7    4   10 am
     8    4   12 1
     9    5    8 1
    10    5   13 1
    11    5   14 1
    12    6    7 1
    13    6   13 2
    14    7    8 2
    15    8    9 1
    16   11   15 1
    17   11   16 1
    18   11   17 1
    19   12   18 1
    20   12   19 1
    21   12   20 1
    22   13   21 1
