@<TRIPOS>MOLECULE
DB00915
   28    30     0     0     0
SMALL
USER_CHARGES

@<TRIPOS>ATOM
      1 N1         -2.7317    0.0023    0.4105 N.3       1 <0>        -0.9900
      2 H1         -3.1456   -0.8144   -0.0379 H         1 <0>         0.3600
      3 H2         -3.1452    0.8145   -0.0457 H         1 <0>         0.3600
      4 C1         -1.2835    0.0010    0.2059 C.3       1 <0>         0.2700
      5 C2          0.8606   -1.2573    0.6613 C.3       1 <0>         0.0000
      6 H3          1.2928   -2.1490    1.1292 H         1 <0>         0.0000
      7 C3          0.8614    1.2643    0.6483 C.3       1 <0>         0.0000
      8 H4          1.2929    2.1611    1.1073 H         1 <0>         0.0000
      9 C4          0.5734   -0.0084   -1.5105 C.3       1 <0>         0.0000
     10 H5          0.8017   -0.0134   -2.5822 H         1 <0>         0.0000
     11 C5         -0.6661   -1.2533    0.8629 C.3       1 <0>         0.0000
     12 H6         -0.8947   -1.2761    1.9361 H         1 <0>         0.0000
     13 H7         -1.0948   -2.1658    0.4290 H         1 <0>         0.0000
     14 C6         -0.6654    1.2613    0.8497 C.3       1 <0>         0.0000
     15 H8         -1.0948    2.1707    0.4073 H         1 <0>         0.0000
     16 H9         -0.8945    1.2959    1.9233 H         1 <0>         0.0000
     17 C7         -0.9528   -0.0062   -1.3039 C.3       1 <0>         0.0000
     18 H10        -1.3885   -0.8892   -1.7890 H         1 <0>         0.0000
     19 H11        -1.3882    0.8723   -1.7972 H         1 <0>         0.0000
     20 C8          1.4601    0.0066    1.3012 C.3       1 <0>         0.0000
     21 H12         2.5504    0.0061    1.1823 H         1 <0>         0.0000
     22 H13         1.2578    0.0125    2.3800 H         1 <0>         0.0000
     23 C9          1.1728   -1.2594   -0.8455 C.3       1 <0>         0.0000
     24 H14         0.7648   -2.1637   -1.3122 H         1 <0>         0.0000
     25 H15         2.2580   -1.2824   -1.0026 H         1 <0>         0.0000
     26 C10         1.1738    1.2498   -0.8583 C.3       1 <0>         0.0000
     27 H16         2.2593    1.2704   -1.0150 H         1 <0>         0.0000
     28 H17         0.7660    2.1500   -1.3340 H         1 <0>         0.0000
@<TRIPOS>BOND
     1    1    2 1
     2    1    3 1
     3    1    4 1
     4    4   11 1
     5    4   14 1
     6    4   17 1
     7    5    6 1
     8    5   11 1
     9    5   20 1
    10    5   23 1
    11    7    8 1
    12    7   14 1
    13    7   20 1
    14    7   26 1
    15    9   10 1
    16    9   17 1
    17    9   23 1
    18    9   26 1
    19   11   12 1
    20   11   13 1
    21   14   15 1
    22   14   16 1
    23   17   18 1
    24   17   19 1
    25   20   21 1
    26   20   22 1
    27   23   24 1
    28   23   25 1
    29   26   27 1
    30   26   28 1
