@<TRIPOS>MOLECULE
DB00151
   14    13     0     0     0
SMALL
USER_CHARGES

@<TRIPOS>ATOM
      1 C1         -1.3187   -0.5597   -0.0778 C.2       1 <0>         0.6590
      2 C2          0.0459    0.0304   -0.4265 C.3       1 <0>         0.3310
      3 H1          0.1140    0.0365   -1.5214 H         1 <0>         0.0000
      4 C3          1.1554   -0.8441    0.1708 C.3       1 <0>         0.2300
      5 H2          1.0631   -1.8802   -0.1709 H         1 <0>         0.0000
      6 H3          1.0891   -0.8586    1.2649 H         1 <0>         0.0000
      7 O1         -2.2996    0.3715   -0.0378 O.3       1 <0>        -0.6500
      8 H4         -3.1192   -0.1304    0.1606 H         1 <0>         0.5000
      9 O2         -1.5726   -1.7383    0.1116 O.2       1 <0>        -0.5700
     10 N1          0.1314    1.4307    0.0562 N.3       1 <0>        -0.9900
     11 H5          0.0743    1.4415    1.0752 H         1 <0>         0.3600
     12 H6         -0.7267    1.9034   -0.2501 H         1 <0>         0.3600
     13 S1          2.8135   -0.2503   -0.2929 S.3       1 <0>        -0.4100
     14 H7          2.5503    1.0476   -0.0620 H         1 <0>         0.1800
@<TRIPOS>BOND
     1    1    2 1
     2    1    7 1
     3    1    9 2
     4    2    3 1
     5    2    4 1
     6    2   10 1
     7    4    5 1
     8    4    6 1
     9    4   13 1
    10    7    8 1
    11   10   11 1
    12   10   12 1
    13   13   14 1
