@<TRIPOS>MOLECULE
DB00513
   22    21     0     0     0
SMALL
USER_CHARGES

@<TRIPOS>ATOM
      1 O1         -4.5975   -0.4479    0.1347 O.3       1 <0>        -0.6500
      2 H1         -5.3458    0.1829    0.0882 H         1 <0>         0.5000
      3 O2         -3.5825    1.5260   -0.1358 O.2       1 <0>        -0.5700
      4 N1          3.9822    0.4516   -0.1584 N.3       1 <0>        -0.9900
      5 H2          4.8249   -0.1093   -0.0439 H         1 <0>         0.3600
      6 H3          3.9786    1.1242    0.6084 H         1 <0>         0.3600
      7 C1          0.2889   -0.4671   -0.0112 C.3       1 <0>         0.0000
      8 H4          0.2863   -1.2012   -0.8258 H         1 <0>         0.0000
      9 H5          0.3196   -1.0287    0.9305 H         1 <0>         0.0000
     10 C2         -0.9901    0.3685   -0.0674 C.3       1 <0>         0.0000
     11 H6         -1.0219    0.9300   -1.0101 H         1 <0>         0.0000
     12 H7         -0.9830    1.1101    0.7402 H         1 <0>         0.0000
     13 C3          1.5331    0.4181   -0.1211 C.3       1 <0>         0.0000
     14 H8          1.5264    1.1566    0.6912 H         1 <0>         0.0000
     15 H9          1.5014    0.9764   -1.0654 H         1 <0>         0.0000
     16 C4         -2.2375   -0.5070    0.0506 C.3       1 <0>         0.0610
     17 H10        -2.2201   -1.0510    1.0018 H         1 <0>         0.0000
     18 H11        -2.2678   -1.2270   -0.7739 H         1 <0>         0.0000
     19 C5          2.8122   -0.4134   -0.0542 C.3       1 <0>         0.2700
     20 H12         2.8548   -0.9673    0.8895 H         1 <0>         0.0000
     21 H13         2.8325   -1.1418   -0.8709 H         1 <0>         0.0000
     22 C6         -3.4948    0.3173    0.0031 C.2       1 <0>         0.6590
@<TRIPOS>BOND
     1    1    2 1
     2    1   22 1
     3    3   22 2
     4    4    5 1
     5    4    6 1
     6    4   19 1
     7    7    8 1
     8    7    9 1
     9    7   10 1
    10    7   13 1
    11   10   11 1
    12   10   12 1
    13   10   16 1
    14   13   14 1
    15   13   15 1
    16   13   19 1
    17   16   17 1
    18   16   18 1
    19   16   22 1
    20   19   20 1
    21   19   21 1
