@<TRIPOS>MOLECULE
DB00733
   19    19     0     0     0
SMALL
USER_CHARGES

@<TRIPOS>ATOM
      1 C1          1.5126   -1.8979   -0.0012 C.ar      1 <0>        -0.1500
      2 H1          1.8485   -2.9328   -0.0016 H         1 <0>         0.1500
      3 C2          2.4314   -0.8622    0.0013 C.ar      1 <0>        -0.1500
      4 H2          3.4975   -1.0742    0.0032 H         1 <0>         0.1500
      5 C3          1.9792    0.4514    0.0022 C.ar      1 <0>         0.2110
      6 H3          2.6800    1.2812    0.0035 H         1 <0>         0.1500
      7 C4          0.1575   -1.5996   -0.0019 C.ar      1 <0>        -0.1500
      8 H4         -0.5669   -2.4127   -0.0030 H         1 <0>         0.1500
      9 N1          0.6541    0.7423   -0.0006 N.ar      1 <0>        -0.2100
     10 C5          0.2556    2.1634   -0.0014 C.3       1 <0>         0.4880
     11 H5          1.1396    2.8061   -0.0074 H         1 <0>         0.0000
     12 H6         -0.3214    2.3558    0.9068 H         1 <0>         0.0000
     13 H7         -0.3283    2.3531   -0.9058 H         1 <0>         0.0000
     14 C6         -0.2629   -0.2647   -0.0008 C.ar      1 <0>         0.4470
     15 C7         -1.7071    0.0435    0.0007 C.2       1 <0>         0.3040
     16 H8         -2.0249    1.0983    0.0030 H         1 <0>         0.0600
     17 N2         -2.6061   -0.8899   -0.0009 N.2       1 <0>        -0.5130
     18 O1         -3.8714   -0.2946    0.0015 O.3       1 <0>        -0.3370
     19 H9         -4.4670   -1.0667    0.0024 H         1 <0>         0.4000
@<TRIPOS>BOND
     1    1    2 1
     2    1    3 ar
     3    1    7 ar
     4    3    4 1
     5    3    5 ar
     6    5    6 1
     7    5    9 ar
     8    7    8 1
     9    7   14 ar
    10    9   10 1
    11    9   14 ar
    12   10   11 1
    13   10   12 1
    14   10   13 1
    15   14   15 1
    16   15   16 1
    17   15   17 2
    18   17   18 1
    19   18   19 1
