@<TRIPOS>MOLECULE
DB00507
   30    31     0     0     0
SMALL
USER_CHARGES

@<TRIPOS>ATOM
      1 S1         -3.1049   -0.7334   -0.4747 S.3       1 <0>        -0.0800
      2 O1          2.2402   -1.2195    0.7246 O.3       1 <0>        -0.2320
      3 O2         -0.1769   -0.9466   -0.6761 O.2       1 <0>        -0.5700
      4 O3          2.9965   -1.8556   -1.3970 O.2       1 <0>        -0.5700
      5 O4         -6.9159   -0.4698   -0.0835 O.2       1 <0>        -0.5200
      6 O5         -5.6801   -2.0481   -0.9882 O.2       1 <0>        -0.5200
      7 N1         -1.1251    0.9626    0.2806 N.am      1 <0>        -0.4940
      8 H1         -0.9225    1.8492    0.7247 H         1 <0>         0.3700
      9 N2         -3.3499    1.4983    0.7776 N.2       1 <0>        -0.5650
     10 N3         -5.8295   -0.9669   -0.4072 N.pl3     1 <0>         0.9600
     11 C1          1.2397    0.8277   -0.1297 C.ar      1 <0>         0.0860
     12 C2          2.3589    0.1094    0.3094 C.ar      1 <0>         0.0820
     13 C3         -0.0999    0.1830   -0.2120 C.2       1 <0>         0.5440
     14 C4          1.3971    2.1691   -0.5095 C.ar      1 <0>        -0.1500
     15 H2          0.5622    2.7451   -0.9021 H         1 <0>         0.1500
     16 C5          3.6072    0.7263    0.4252 C.ar      1 <0>        -0.1500
     17 H3          4.4656    0.1684    0.7904 H         1 <0>         0.1500
     18 C6          2.6495    2.7811   -0.4138 C.ar      1 <0>        -0.1500
     19 H4          2.7701    3.8199   -0.7128 H         1 <0>         0.1500
     20 C7         -2.4687    0.6746    0.2534 C.2       1 <0>         0.4420
     21 C8          3.7494    2.0634    0.0577 C.ar      1 <0>        -0.1500
     22 H5          4.7198    2.5461    0.1340 H         1 <0>         0.1500
     23 C9         -4.6670   -0.2117   -0.0694 C.2       1 <0>         0.1200
     24 C10        -4.6234    0.9901    0.5955 C.2       1 <0>         0.0770
     25 H6         -5.4743    1.5473    0.9693 H         1 <0>         0.1500
     26 C11         2.5670   -2.1212   -0.2821 C.2       1 <0>         0.6590
     27 C12         2.3219   -3.5129    0.2192 C.3       1 <0>         0.0610
     28 H7          1.2671   -3.6315    0.4815 H         1 <0>         0.0000
     29 H8          2.9594   -3.7138    1.0844 H         1 <0>         0.0000
     30 H9          2.5668   -4.2305   -0.5694 H         1 <0>         0.0000
@<TRIPOS>BOND
     1    1   20 1
     2    1   23 1
     3    2   12 1
     4    2   26 1
     5    3   13 2
     6    4   26 2
     7    5   10 2
     8    6   10 2
     9    7    8 1
    10    7   13 am
    11    7   20 1
    12    9   20 2
    13    9   24 1
    14   10   23 1
    15   11   12 ar
    16   11   13 1
    17   11   14 ar
    18   12   16 ar
    19   14   15 1
    20   14   18 ar
    21   16   17 1
    22   16   21 ar
    23   18   19 1
    24   18   21 ar
    25   21   22 1
    26   23   24 2
    27   24   25 1
    28   26   27 1
    29   27   28 1
    30   27   29 1
    31   27   30 1
