@<TRIPOS>MOLECULE
DB00576
   27    28     0     0     0
SMALL
USER_CHARGES

@<TRIPOS>ATOM
      1 S1          0.0451   -2.3515    0.9250 S.o2      1 <0>         1.4470
      2 S2         -2.1459    0.1666    0.6932 S.3       1 <0>        -0.0800
      3 O1          0.7369   -3.6008    0.6802 O.2       1 <0>        -0.6500
      4 O2         -0.5189   -2.0659    2.2276 O.2       1 <0>        -0.6500
      5 N1         -1.1348   -2.2179   -0.2512 N.pl3     1 <0>        -0.7040
      6 H1         -1.1628   -2.9676   -0.9414 H         1 <0>         0.4200
      7 N2         -2.8406   -1.2025   -1.3369 N.2       1 <0>        -0.3380
      8 N3          3.8911    1.9591   -0.5170 N.pl3     1 <0>        -0.9000
      9 H2          4.0781    2.7199    0.1205 H         1 <0>         0.4000
     10 H3          4.3680    1.9466   -1.4080 H         1 <0>         0.4000
     11 N4         -3.6735   -0.0991   -1.3352 N.2       1 <0>        -0.3380
     12 C1          1.1891   -1.0636    0.5070 C.ar      1 <0>        -0.0090
     13 C2          1.8377   -1.1067   -0.7285 C.ar      1 <0>        -0.1500
     14 H4          1.6561   -1.9161   -1.4313 H         1 <0>         0.1500
     15 C3          1.4488   -0.0348    1.4120 C.ar      1 <0>        -0.1500
     16 H5          0.9608   -0.0012    2.3836 H         1 <0>         0.1500
     17 C4          3.0007    0.9560   -0.1776 C.ar      1 <0>         0.1000
     18 C5          2.7383   -0.0936   -1.0647 C.ar      1 <0>        -0.1500
     19 H6          3.2388   -0.1293   -2.0295 H         1 <0>         0.1500
     20 C6          2.3505    0.9718    1.0614 C.ar      1 <0>        -0.1500
     21 H7          2.5452    1.7744    1.7684 H         1 <0>         0.1500
     22 C7         -1.9986   -1.1809   -0.3303 C.2       1 <0>         0.5240
     23 C8         -3.4256    0.7007   -0.3194 C.2       1 <0>         0.1980
     24 C9         -4.1514    1.9623   -0.0301 C.3       1 <0>         0.1800
     25 H8         -3.4720    2.8200   -0.0673 H         1 <0>         0.0000
     26 H9         -4.6192    1.9265    0.9589 H         1 <0>         0.0000
     27 H10        -4.9417    2.1277   -0.7694 H         1 <0>         0.0000
@<TRIPOS>BOND
     1    1    3 2
     2    1    4 2
     3    1    5 1
     4    1   12 1
     5    2   22 1
     6    2   23 1
     7    5    6 1
     8    5   22 1
     9    7   11 1
    10    7   22 2
    11    8    9 1
    12    8   10 1
    13    8   17 1
    14   11   23 2
    15   12   13 ar
    16   12   15 ar
    17   13   14 1
    18   13   18 ar
    19   15   16 1
    20   15   20 ar
    21   17   18 ar
    22   17   20 ar
    23   18   19 1
    24   20   21 1
    25   23   24 1
    26   24   25 1
    27   24   26 1
    28   24   27 1
