@<TRIPOS>MOLECULE
DB00189
   18    17     0     0     0
SMALL
USER_CHARGES

@<TRIPOS>ATOM
      1 C1         -0.8389    0.7911    0.5062 C.3       1 <0>         0.0000
      2 H1         -0.5534    0.6571    1.5586 H         1 <0>         0.0000
      3 H2         -0.8251    1.8724    0.3079 H         1 <0>         0.0000
      4 C2          0.1798    0.0866   -0.4157 C.3       1 <0>         0.6180
      5 C3          1.5259    0.7573   -0.2783 C.2       1 <0>        -0.2880
      6 H3          1.5677    1.7633   -0.6952 H         1 <0>         0.1500
      7 C4          2.6378    0.2599    0.2749 C.2       1 <0>        -0.0100
      8 Cl1         4.1033    1.1460    0.3555 Cl        1 <0>        -0.1400
      9 H4          2.7332   -0.7197    0.7218 H         1 <0>         0.1500
     10 C5          0.2422   -1.3622   -0.1396 C.1       1 <0>        -0.2000
     11 O1         -0.2096    0.2823   -1.7755 O.3       1 <0>        -0.6800
     12 H5         -0.8983   -0.3735   -1.9763 H         1 <0>         0.4000
     13 C6         -2.2828    0.3269    0.3304 C.3       1 <0>         0.0000
     14 H6         -2.3950   -0.7378    0.5556 H         1 <0>         0.0000
     15 H7         -2.6396    0.5063   -0.6876 H         1 <0>         0.0000
     16 H8         -2.9369    0.8812    1.0129 H         1 <0>         0.0000
     17 C7          0.2785   -2.5449    0.0764 C.1       1 <0>        -0.1770
     18 H9          0.3113   -3.5922    0.2681 H         1 <0>         0.1770
@<TRIPOS>BOND
     1    1    2 1
     2    1    3 1
     3    1    4 1
     4    1   13 1
     5    4    5 1
     6    4   10 1
     7    4   11 1
     8    5    6 1
     9    5    7 2
    10    7    8 1
    11    7    9 1
    12   10   17 3
    13   11   12 1
    14   13   14 1
    15   13   15 1
    16   13   16 1
    17   17   18 1
