@<TRIPOS>MOLECULE
DB00852
   27    27     0     0     0
SMALL
USER_CHARGES

@<TRIPOS>ATOM
      1 O1         -0.4116   -1.3927    1.7068 O.3       1 <0>        -0.6800
      2 H1         -1.1884   -1.2341    2.2725 H         1 <0>         0.4000
      3 N1         -2.6047   -0.3573    0.4568 N.3       1 <0>        -0.9000
      4 H2         -2.5467   -1.3480    0.7033 H         1 <0>         0.3600
      5 C1         -1.2798    0.0238   -0.0978 C.3       1 <0>         0.2700
      6 H3         -1.0609   -0.6674   -0.9224 H         1 <0>         0.0000
      7 C2         -0.1974   -0.1537    1.0135 C.3       1 <0>         0.4240
      8 H4         -0.3010    0.6398    1.7659 H         1 <0>         0.0000
      9 C3          1.2202   -0.1604    0.4802 C.ar      1 <0>        -0.1440
     10 C4         -1.2553    1.4584   -0.6408 C.3       1 <0>         0.0000
     11 H5         -1.5365    2.1808    0.1330 H         1 <0>         0.0000
     12 H6         -1.9374    1.5826   -1.4881 H         1 <0>         0.0000
     13 H7         -0.2593    1.7281   -1.0078 H         1 <0>         0.0000
     14 C5          2.0652    0.9378    0.6991 C.ar      1 <0>        -0.1500
     15 H8          1.7133    1.8000    1.2622 H         1 <0>         0.1500
     16 C6          1.7134   -1.2534   -0.2508 C.ar      1 <0>        -0.1500
     17 H9          1.0823   -2.1227   -0.4216 H         1 <0>         0.1500
     18 C7         -3.6961   -0.2159   -0.5011 C.3       1 <0>         0.2700
     19 H10        -3.9242    0.8348   -0.7034 H         1 <0>         0.0000
     20 H11        -4.6036   -0.6597   -0.0789 H         1 <0>         0.0000
     21 H12        -3.4802   -0.7326   -1.4425 H         1 <0>         0.0000
     22 C8          3.3687    0.9443    0.1971 C.ar      1 <0>        -0.1500
     23 H13         4.0137    1.8015    0.3732 H         1 <0>         0.1500
     24 C9          3.0169   -1.2455   -0.7512 C.ar      1 <0>        -0.1500
     25 H14         3.3874   -2.1000   -1.3121 H         1 <0>         0.1500
     26 C10         3.8438   -0.1467   -0.5286 C.ar      1 <0>        -0.1500
     27 H15         4.8582   -0.1418   -0.9166 H         1 <0>         0.1500
@<TRIPOS>BOND
     1    1    2 1
     2    1    7 1
     3    3    4 1
     4    3    5 1
     5    3   18 1
     6    5    6 1
     7    5    7 1
     8    5   10 1
     9    7    8 1
    10    7    9 1
    11    9   14 ar
    12    9   16 ar
    13   10   11 1
    14   10   12 1
    15   10   13 1
    16   14   15 1
    17   14   22 ar
    18   16   17 1
    19   16   24 ar
    20   18   19 1
    21   18   20 1
    22   18   21 1
    23   22   23 1
    24   22   26 ar
    25   24   25 1
    26   24   26 ar
    27   26   27 1
