@<TRIPOS>MOLECULE
DB00883
   24    25     0     0     0
SMALL
USER_CHARGES

@<TRIPOS>ATOM
      1 O1          0.0828    1.4078    0.4559 O.3       1 <0>        -0.5600
      2 O2         -0.2048   -1.6529    0.7053 O.3       1 <0>        -0.5600
      3 O3          3.1037   -0.5506    0.3911 O.3       1 <0>        -0.2710
      4 O4         -2.5202    0.9481   -0.2707 O.3       1 <0>        -0.2710
      5 O5          4.6871   -0.5043   -1.1421 O.2       1 <0>        -0.5200
      6 O6          2.6871    0.3251   -1.6579 O.2       1 <0>        -0.5200
      7 O7         -4.6402    1.5408   -0.3414 O.2       1 <0>        -0.5200
      8 O8         -4.1197   -0.6002   -0.6758 O.2       1 <0>        -0.5200
      9 N1          3.5158   -0.2073   -0.9200 N.pl3     1 <0>         1.0310
     10 N2         -3.8736    0.5859   -0.4496 N.pl3     1 <0>         1.0310
     11 C1          0.6500   -0.8169   -0.1112 C.3       1 <0>         0.2800
     12 C2         -0.1875    0.3844   -0.5208 C.3       1 <0>         0.2800
     13 C3          1.7635   -0.2258    0.7469 C.3       1 <0>         0.2800
     14 H1          1.6568   -0.6332    1.7613 H         1 <0>         0.0000
     15 C4         -1.6111   -0.1294   -0.4232 C.3       1 <0>         0.2800
     16 H2         -1.8111   -0.7157   -1.3304 H         1 <0>         0.0000
     17 C5          1.4549    1.2638    0.8401 C.3       1 <0>         0.2800
     18 H3          2.0759    1.8911    0.1931 H         1 <0>         0.0000
     19 H4          1.5754    1.6381    1.8620 H         1 <0>         0.0000
     20 C6         -1.4975   -1.0304    0.7937 C.3       1 <0>         0.2800
     21 H5         -2.2661   -1.8072    0.8192 H         1 <0>         0.0000
     22 H6         -1.5583   -0.4689    1.7333 H         1 <0>         0.0000
     23 H7          0.9802   -1.4326   -0.9519 H         1 <0>         0.0000
     24 H8          0.0570    0.7903   -1.5072 H         1 <0>         0.0000
@<TRIPOS>BOND
     1    1   12 1
     2    1   17 1
     3    2   11 1
     4    2   20 1
     5    3    9 1
     6    3   13 1
     7    4   10 1
     8    4   15 1
     9    5    9 2
    10    6    9 2
    11    7   10 2
    12    8   10 2
    13   11   12 1
    14   11   13 1
    15   11   23 1
    16   12   15 1
    17   12   24 1
    18   13   14 1
    19   13   17 1
    20   15   16 1
    21   15   20 1
    22   17   18 1
    23   17   19 1
    24   20   21 1
    25   20   22 1
