@<TRIPOS>MOLECULE
DB00397
   24    24     0     0     0
SMALL
USER_CHARGES

@<TRIPOS>ATOM
      1 O1         -1.1017    0.5791   -1.8848 O.3       1 <0>        -0.6800
      2 H1         -0.3950    0.5119   -2.5491 H         1 <0>         0.4000
      3 N1         -3.1120   -0.7969   -0.0159 N.3       1 <0>        -0.9900
      4 H2         -3.7292   -0.7595    0.7928 H         1 <0>         0.3600
      5 H3         -3.0263   -1.7785   -0.2739 H         1 <0>         0.3600
      6 C1         -0.7914   -0.3589   -0.8505 C.3       1 <0>         0.4240
      7 H4         -0.8965   -1.3515   -1.3085 H         1 <0>         0.0000
      8 C2         -1.7895   -0.2496    0.3411 C.3       1 <0>         0.2700
      9 H5         -1.4124   -0.8499    1.1782 H         1 <0>         0.0000
     10 C3          0.6575   -0.2101   -0.4169 C.ar      1 <0>        -0.1440
     11 C4         -1.9955    1.1860    0.8308 C.3       1 <0>         0.0000
     12 H6         -2.3931    1.8344    0.0427 H         1 <0>         0.0000
     13 H7         -1.0569    1.6204    1.1900 H         1 <0>         0.0000
     14 H8         -2.6995    1.2145    1.6709 H         1 <0>         0.0000
     15 C5          1.2955    1.0411   -0.3953 C.ar      1 <0>        -0.1500
     16 H9          0.7573    1.9371   -0.6960 H         1 <0>         0.1500
     17 C6          1.3806   -1.3402   -0.0050 C.ar      1 <0>        -0.1500
     18 H10         0.9144   -2.3230   -0.0017 H         1 <0>         0.1500
     19 C7          2.6244    1.1554    0.0188 C.ar      1 <0>        -0.1500
     20 H11         3.1061    2.1298    0.0311 H         1 <0>         0.1500
     21 C8          2.7088   -1.2229    0.4100 C.ar      1 <0>        -0.1500
     22 H12         3.2592   -2.1063    0.7263 H         1 <0>         0.1500
     23 C9          3.3307    0.0236    0.4209 C.ar      1 <0>        -0.1500
     24 H13         4.3645    0.1142    0.7441 H         1 <0>         0.1500
@<TRIPOS>BOND
     1    1    2 1
     2    1    6 1
     3    3    4 1
     4    3    5 1
     5    3    8 1
     6    6    7 1
     7    6    8 1
     8    6   10 1
     9    8    9 1
    10    8   11 1
    11   10   15 ar
    12   10   17 ar
    13   11   12 1
    14   11   13 1
    15   11   14 1
    16   15   16 1
    17   15   19 ar
    18   17   18 1
    19   17   21 ar
    20   19   20 1
    21   19   23 ar
    22   21   22 1
    23   21   23 ar
    24   23   24 1
