@<TRIPOS>MOLECULE
DB00928
   29    30     0     0     0
SMALL
USER_CHARGES

@<TRIPOS>ATOM
      1 O1         -1.0326   -0.5082    1.1688 O.3       1 <0>        -0.5600
      2 O2         -0.8601    2.5824   -0.6858 O.3       1 <0>        -0.6800
      3 H1          0.1043    2.7859   -0.5908 H         1 <0>         0.4000
      4 O3         -2.9430    1.8342    0.6965 O.3       1 <0>        -0.6800
      5 H2         -2.5899    2.6813    0.3496 H         1 <0>         0.4000
      6 O4         -2.4334   -2.9084    0.2745 O.3       1 <0>        -0.6800
      7 H3         -2.5354   -3.6305   -0.3694 H         1 <0>         0.4000
      8 O5          1.6140    2.3925   -0.0884 O.2       1 <0>        -0.5700
      9 N1          1.1090    0.2450    0.4376 N.am      1 <0>        -0.4200
     10 N2          3.3044    0.8841   -0.1290 N.2       1 <0>        -0.6610
     11 N3          2.7870   -1.3585    0.2812 N.2       1 <0>        -0.6610
     12 N4          4.9434   -0.7056   -0.2368 N.pl3     1 <0>        -0.8500
     13 H4          5.6214    0.0034   -0.4686 H         1 <0>         0.4000
     14 H5          5.2167   -1.6739   -0.1570 H         1 <0>         0.4000
     15 C1         -1.0003    1.1708   -0.5203 C.3       1 <0>         0.2800
     16 H6         -0.6756    0.6652   -1.4374 H         1 <0>         0.0000
     17 C2         -2.4407    0.8364   -0.2005 C.3       1 <0>         0.2800
     18 H7         -3.0956    0.8281   -1.0760 H         1 <0>         0.0000
     19 C3         -2.3288   -0.5028    0.5168 C.3       1 <0>         0.2800
     20 H8         -3.0817   -0.6162    1.3044 H         1 <0>         0.0000
     21 C4         -0.2732    0.6196    0.7140 C.3       1 <0>         0.5800
     22 H9         -0.2548    1.3679    1.5168 H         1 <0>         0.0000
     23 C5         -2.3935   -1.6856   -0.4559 C.3       1 <0>         0.2800
     24 H10        -1.5144   -1.7174   -1.1062 H         1 <0>         0.0000
     25 H11        -3.2993   -1.6317   -1.0686 H         1 <0>         0.0000
     26 C6          2.0016    1.2333    0.0767 C.2       1 <0>         0.8410
     27 C7          1.5663   -1.0308    0.5089 C.2       1 <0>         0.4500
     28 H12         0.8308   -1.8042    0.7737 H         1 <0>         0.0600
     29 C8          3.6535   -0.3563   -0.0286 C.2       1 <0>         0.7110
@<TRIPOS>BOND
     1    1   19 1
     2    1   21 1
     3    2    3 1
     4    2   15 1
     5    4    5 1
     6    4   17 1
     7    6    7 1
     8    6   23 1
     9    8   26 2
    10    9   21 1
    11    9   26 am
    12    9   27 1
    13   10   26 1
    14   10   29 2
    15   11   27 2
    16   11   29 1
    17   12   13 1
    18   12   14 1
    19   12   29 1
    20   15   16 1
    21   15   17 1
    22   15   21 1
    23   17   18 1
    24   17   19 1
    25   19   20 1
    26   19   23 1
    27   21   22 1
    28   23   24 1
    29   23   25 1
    30   27   28 1
