@<TRIPOS>MOLECULE
DB00999
   25    26     0     0     0
SMALL
USER_CHARGES

@<TRIPOS>ATOM
      1 Cl1         2.5120    2.6342    0.2061 Cl        1 <0>        -0.1770
      2 S1         -1.9601   -1.7478    0.0895 S.o2      1 <0>         1.4470
      3 S2          3.3193   -0.5461    0.5086 S.o2      1 <0>         1.4470
      4 O1         -2.2938   -2.1040    1.4516 O.2       1 <0>        -0.6500
      5 O2         -1.5586   -2.7323   -0.8913 O.2       1 <0>        -0.6500
      6 O3          3.3223   -1.9931    0.4752 O.2       1 <0>        -0.6500
      7 O4          3.9294    0.1853    1.5944 O.2       1 <0>        -0.6500
      8 N1         -3.2396   -0.8798   -0.5825 N.pl3     1 <0>        -0.9140
      9 H1         -3.1978   -0.8286   -1.5996 H         1 <0>         0.4200
     10 N2         -2.3545    1.2532   -0.0785 N.pl3     1 <0>        -0.8690
     11 H2         -2.5382    2.2313   -0.2669 H         1 <0>         0.4000
     12 N3          4.0407   -0.0540   -0.9346 N.pl3     1 <0>        -0.9780
     13 H3          4.3607   -0.8454   -1.4962 H         1 <0>         0.4200
     14 H4          4.7506    0.6680   -0.7872 H         1 <0>         0.4200
     15 C1         -0.6951   -0.5255    0.1693 C.ar      1 <0>        -0.0090
     16 C2         -1.0494    0.8198    0.0458 C.ar      1 <0>         0.1000
     17 C3         -3.4888    0.3825    0.0808 C.3       1 <0>         0.7250
     18 H5         -4.3699    0.8500   -0.3706 H         1 <0>         0.0000
     19 H6         -3.7170    0.2304    1.1415 H         1 <0>         0.0000
     20 C4          0.6334   -0.9445    0.2978 C.ar      1 <0>        -0.1500
     21 H7          0.8586   -2.0066    0.3797 H         1 <0>         0.1500
     22 C5          1.6526    0.0124    0.3165 C.ar      1 <0>        -0.0090
     23 C6         -0.0079    1.7568    0.0671 C.ar      1 <0>        -0.1500
     24 H8         -0.2447    2.8157   -0.0198 H         1 <0>         0.1500
     25 C7          1.3358    1.3684    0.2032 C.ar      1 <0>         0.1770
@<TRIPOS>BOND
     1    1   25 1
     2    2    4 2
     3    2    5 2
     4    2    8 1
     5    2   15 1
     6    3    6 2
     7    3    7 2
     8    3   12 1
     9    3   22 1
    10    8    9 1
    11    8   17 1
    12   10   11 1
    13   10   16 1
    14   10   17 1
    15   12   13 1
    16   12   14 1
    17   15   16 ar
    18   15   20 ar
    19   16   23 ar
    20   17   18 1
    21   17   19 1
    22   20   21 1
    23   20   22 ar
    24   22   25 ar
    25   23   24 1
    26   23   25 ar
