@<TRIPOS>MOLECULE
DB00774
   28    29     0     0     0
SMALL
USER_CHARGES

@<TRIPOS>ATOM
      1 S1         -2.4929    1.6930   -0.1212 S.o2      1 <0>         1.4470
      2 S2          2.9136    1.3398   -0.5179 S.o2      1 <0>         1.4470
      3 F1          2.9216   -2.0917   -1.4074 F         1 <0>        -0.3400
      4 F2          2.1768   -3.0296    0.3971 F         1 <0>        -0.3400
      5 F3          3.5161   -1.3436    0.5614 F         1 <0>        -0.3400
      6 O1         -2.8615    1.9833   -1.4897 O.2       1 <0>        -0.6500
      7 O2         -2.2578    2.7351    0.8543 O.2       1 <0>        -0.6500
      8 O3          3.7072    0.5495   -1.4281 O.2       1 <0>        -0.6500
      9 O4          2.6473    2.7400   -0.7576 O.2       1 <0>        -0.6500
     10 N1         -2.4176   -1.3298    0.0806 N.pl3     1 <0>        -0.8690
     11 H1         -2.4491   -2.3221    0.2832 H         1 <0>         0.4000
     12 N2         -3.6312    0.6446    0.5458 N.pl3     1 <0>        -0.9140
     13 H2         -3.5952    0.6104    1.5636 H         1 <0>         0.4200
     14 N3          3.5790    1.2017    1.0287 N.pl3     1 <0>        -0.9780
     15 H3          4.2349    0.4110    1.0738 H         1 <0>         0.4200
     16 H4          2.9075    1.1910    1.7976 H         1 <0>         0.4200
     17 C1         -1.0529    0.6808   -0.1774 C.ar      1 <0>        -0.0090
     18 C2         -1.1953   -0.6993   -0.0376 C.ar      1 <0>         0.1000
     19 C3          1.3514    0.5104   -0.3003 C.ar      1 <0>        -0.0090
     20 C4          1.2656   -0.8873   -0.1627 C.ar      1 <0>        -0.1440
     21 C5          0.1943    1.2968   -0.3029 C.ar      1 <0>        -0.1500
     22 H5          0.2515    2.3799   -0.4050 H         1 <0>         0.1500
     23 C6         -3.6708   -0.6485   -0.1048 C.3       1 <0>         0.7250
     24 H6         -4.4746   -1.2426    0.3420 H         1 <0>         0.0000
     25 H7         -3.9047   -0.5455   -1.1699 H         1 <0>         0.0000
     26 C7         -0.0194   -1.4647   -0.0399 C.ar      1 <0>        -0.1500
     27 H8         -0.1047   -2.5477    0.0550 H         1 <0>         0.1500
     28 C8          2.4609   -1.8151   -0.1605 C.3       1 <0>         1.1640
@<TRIPOS>BOND
     1    1    6 2
     2    1    7 2
     3    1   12 1
     4    1   17 1
     5    2    8 2
     6    2    9 2
     7    2   14 1
     8    2   19 1
     9    3   28 1
    10    4   28 1
    11    5   28 1
    12   10   11 1
    13   10   18 1
    14   10   23 1
    15   12   13 1
    16   12   23 1
    17   14   15 1
    18   14   16 1
    19   17   18 ar
    20   17   21 ar
    21   18   26 ar
    22   19   20 ar
    23   19   21 ar
    24   20   26 ar
    25   20   28 1
    26   21   22 1
    27   23   24 1
    28   23   25 1
    29   26   27 1
