@<TRIPOS>MOLECULE
DB00827
   29    31     0     0     0
SMALL
USER_CHARGES

@<TRIPOS>ATOM
      1 O1         -3.8621   -1.1289    0.1901 O.3       1 <0>        -0.3630
      2 O2         -4.1448    1.2539   -0.0492 O.3       1 <0>        -0.3630
      3 O3          0.6430    3.1786   -0.4887 O.2       1 <0>        -0.5700
      4 O4          3.4774    2.6430    1.1135 O.3       1 <0>        -0.6500
      5 H1          4.3047    3.1634    1.0541 H         1 <0>         0.5000
      6 O5          4.0255    2.2805   -1.0508 O.2       1 <0>        -0.5700
      7 N1          1.0309   -0.7698   -0.0156 N.pl3     1 <0>        -0.4270
      8 N2          2.1397    0.0272   -0.0253 N.2       1 <0>        -0.4920
      9 C1         -0.2794   -0.2549   -0.0288 C.ar      1 <0>         0.1000
     10 C2         -0.4902    1.1355   -0.1644 C.ar      1 <0>         0.0860
     11 C3         -2.6742   -0.4745    0.0759 C.ar      1 <0>         0.0820
     12 C4         -1.4231   -1.0660    0.0933 C.ar      1 <0>        -0.1500
     13 H2         -1.3644   -2.1418    0.2092 H         1 <0>         0.1500
     14 C5         -2.8384    0.8820   -0.0607 C.ar      1 <0>         0.0820
     15 C6         -1.7619    1.7240   -0.1863 C.ar      1 <0>        -0.1500
     16 H3         -1.8978    2.7943   -0.2930 H         1 <0>         0.1500
     17 C7          1.2462   -2.2252    0.0370 C.3       1 <0>         0.3690
     18 H4          0.8650   -2.6152    0.9879 H         1 <0>         0.0000
     19 H5          0.6926   -2.7078   -0.7774 H         1 <0>         0.0000
     20 C8          0.6924    1.9746   -0.2845 C.2       1 <0>         0.4840
     21 C9          2.0188    1.3140   -0.1398 C.2       1 <0>         0.4500
     22 C10        -4.7884   -0.0264    0.1097 C.3       1 <0>         0.5600
     23 H6         -5.4568   -0.1916   -0.7437 H         1 <0>         0.0000
     24 H7         -5.3895   -0.0061    1.0270 H         1 <0>         0.0000
     25 C11         2.7081   -2.6360   -0.0960 C.3       1 <0>         0.0000
     26 H8          3.3119   -2.2348    0.7235 H         1 <0>         0.0000
     27 H9          3.1345   -2.2867   -1.0423 H         1 <0>         0.0000
     28 H10         2.7948   -3.7272   -0.0714 H         1 <0>         0.0000
     29 C12         3.2855    2.1218   -0.1033 C.2       1 <0>         0.7200
@<TRIPOS>BOND
     1    1   11 1
     2    1   22 1
     3    2   14 1
     4    2   22 1
     5    3   20 2
     6    4    5 1
     7    4   29 1
     8    6   29 2
     9    7    8 1
    10    7    9 1
    11    7   17 1
    12    8   21 2
    13    9   10 ar
    14    9   12 ar
    15   10   15 ar
    16   10   20 1
    17   11   12 ar
    18   11   14 ar
    19   12   13 1
    20   14   15 ar
    21   15   16 1
    22   17   18 1
    23   17   19 1
    24   17   25 1
    25   20   21 1
    26   21   29 1
    27   22   23 1
    28   22   24 1
    29   25   26 1
    30   25   27 1
    31   25   28 1
