@<TRIPOS>MOLECULE
DB00627
   14    14     0     0     0
SMALL
USER_CHARGES

@<TRIPOS>ATOM
      1 O1          2.4980    0.9885    0.0038 O.3       1 <0>        -0.6500
      2 H1          3.4659    0.8310    0.0033 H         1 <0>         0.5000
      3 O2          2.6121   -1.2547   -0.0051 O.2       1 <0>        -0.5700
      4 N1         -1.5789   -1.4695    0.0011 N.ar      1 <0>        -0.6200
      5 C1          0.4782   -0.1917   -0.0002 C.ar      1 <0>         0.0860
      6 C2         -0.2516    0.9978   -0.0012 C.ar      1 <0>        -0.1500
      7 H2          0.2484    1.9630   -0.0022 H         1 <0>         0.1500
      8 C3         -0.2259   -1.3890    0.0008 C.ar      1 <0>         0.1600
      9 H3          0.2837   -2.3489    0.0009 H         1 <0>         0.1500
     10 C4         -1.6437    0.9458   -0.0006 C.ar      1 <0>        -0.1500
     11 H4         -2.2364    1.8545   -0.0008 H         1 <0>         0.1500
     12 C5         -2.2538   -0.2988    0.0006 C.ar      1 <0>         0.1600
     13 H5         -3.3361   -0.3909    0.0012 H         1 <0>         0.1500
     14 C6          1.9401   -0.2370   -0.0016 C.2       1 <0>         0.6340
@<TRIPOS>BOND
     1    1    2 1
     2    1   14 1
     3    3   14 2
     4    4    8 ar
     5    4   12 ar
     6    5    6 ar
     7    5    8 ar
     8    5   14 1
     9    6    7 1
    10    6   10 ar
    11    8    9 1
    12   10   11 1
    13   10   12 ar
    14   12   13 1
