@<TRIPOS>MOLECULE
DB00879
   26    27     0     0     0
SMALL
USER_CHARGES

@<TRIPOS>ATOM
      1 S1          2.7285   -1.5009    0.8692 S.3       1 <0>        -0.4600
      2 F1         -2.8690    2.5435    0.4475 F         1 <0>        -0.1500
      3 O1          1.3498    0.2269   -0.5917 O.3       1 <0>        -0.5600
      4 O2          4.9750    0.6134   -0.1978 O.3       1 <0>        -0.6800
      5 H1          5.4836    1.3980    0.0708 H         1 <0>         0.4000
      6 O3         -1.6416   -2.5415   -0.6717 O.2       1 <0>        -0.5700
      7 N1         -0.9165   -0.4160   -0.2187 N.am      1 <0>        -0.4690
      8 N2         -3.2436   -0.9595   -0.3791 N.2       1 <0>        -0.6610
      9 N3         -4.8507    0.6303   -0.0482 N.pl3     1 <0>        -0.8500
     10 H2         -5.5508   -0.0780   -0.2310 H         1 <0>         0.4000
     11 H3         -5.1520    1.5726    0.1664 H         1 <0>         0.4000
     12 C1          0.4709   -0.8718   -0.2937 C.3       1 <0>         0.5800
     13 H4          0.5548   -1.5993   -1.1140 H         1 <0>         0.0000
     14 C2          0.9357   -1.4912    1.0244 C.3       1 <0>         0.2300
     15 H5          0.5296   -2.4934    1.1861 H         1 <0>         0.0000
     16 H6          0.6687   -0.8624    1.8811 H         1 <0>         0.0000
     17 C3          2.6997   -0.2354   -0.4377 C.3       1 <0>         0.5100
     18 H7          3.0188   -0.7061   -1.3740 H         1 <0>         0.0000
     19 C4          3.5974    0.9599   -0.1134 C.3       1 <0>         0.2800
     20 H8          3.3839    1.3617    0.8844 H         1 <0>         0.0000
     21 H9          3.4087    1.7679   -0.8286 H         1 <0>         0.0000
     22 C5         -1.2237    0.8938    0.0873 C.2       1 <0>        -0.0410
     23 H10        -0.4102    1.5877    0.2661 H         1 <0>         0.1500
     24 C6         -1.9272   -1.3676   -0.4406 C.2       1 <0>         0.8410
     25 C7         -2.4879    1.2878    0.1570 C.2       1 <0>         0.1640
     26 C8         -3.5317    0.2795   -0.1002 C.2       1 <0>         0.4860
@<TRIPOS>BOND
     1    1   14 1
     2    1   17 1
     3    2   25 1
     4    3   12 1
     5    3   17 1
     6    4    5 1
     7    4   19 1
     8    6   24 2
     9    7   12 1
    10    7   22 1
    11    7   24 am
    12    8   24 1
    13    8   26 2
    14    9   10 1
    15    9   11 1
    16    9   26 1
    17   12   13 1
    18   12   14 1
    19   14   15 1
    20   14   16 1
    21   17   18 1
    22   17   19 1
    23   19   20 1
    24   19   21 1
    25   22   23 1
    26   22   25 2
    27   25   26 1
