@<TRIPOS>MOLECULE
DB00550
   21    21     0     0     0
SMALL
USER_CHARGES

@<TRIPOS>ATOM
      1 S1          3.8705    2.2541    0.0098 S.2       1 <0>        -0.3800
      2 O1          2.7862   -2.5618    0.0023 O.2       1 <0>        -0.5700
      3 N1          1.4417    1.1831   -0.0031 N.pl3     1 <0>        -0.5390
      4 H1          1.1176    2.1460   -0.0047 H         1 <0>         0.3700
      5 N2          3.2156   -0.3187    0.0057 N.am      1 <0>        -0.4900
      6 H2          4.2086   -0.5071    0.0118 H         1 <0>         0.3700
      7 C1         -0.9321    0.6115   -0.0113 C.3       1 <0>         0.1380
      8 H3         -1.0917    1.2403   -0.8970 H         1 <0>         0.0000
      9 H4         -1.0918    1.2539    0.8643 H         1 <0>         0.0000
     10 C2          0.5145    0.1631   -0.0084 C.2       1 <0>        -0.0290
     11 C3         -1.9945   -0.4947   -0.0018 C.3       1 <0>         0.0000
     12 H5         -1.8694   -1.1304    0.8822 H         1 <0>         0.0000
     13 H6         -1.8834   -1.1317   -0.8867 H         1 <0>         0.0000
     14 C4          0.9366   -1.1080   -0.0073 C.2       1 <0>        -0.1360
     15 H7          0.2757   -1.9645   -0.0099 H         1 <0>         0.1500
     16 C5         -3.3996    0.0883    0.0101 C.3       1 <0>         0.0000
     17 H8         -3.5619    0.7045    0.8999 H         1 <0>         0.0000
     18 H9         -4.1432   -0.7157    0.0138 H         1 <0>         0.0000
     19 H10        -3.5747    0.7096   -0.8743 H         1 <0>         0.0000
     20 C6          2.7960    0.9833    0.0040 C.2       1 <0>         0.5000
     21 C7          2.3793   -1.4051    0.0005 C.2       1 <0>         0.6160
@<TRIPOS>BOND
     1    1   20 2
     2    2   21 2
     3    3    4 1
     4    3   10 1
     5    3   20 1
     6    5    6 1
     7    5   20 1
     8    5   21 am
     9    7    8 1
    10    7    9 1
    11    7   10 1
    12    7   11 1
    13   10   14 2
    14   11   12 1
    15   11   13 1
    16   11   16 1
    17   14   15 1
    18   14   21 1
    19   16   17 1
    20   16   18 1
    21   16   19 1
