@<TRIPOS>MOLECULE
DB00592
   16    16     0     0     0
SMALL
USER_CHARGES

@<TRIPOS>ATOM
      1 N1         -0.0006   -1.4704    0.1538 N.3       1 <0>        -0.9000
      2 H1         -0.0007   -1.5432    1.1720 H         1 <0>         0.3600
      3 N2          0.0004    1.4699   -0.1550 N.3       1 <0>        -0.9000
      4 H2          0.0005    1.5407   -1.1730 H         1 <0>         0.3600
      5 C1          1.2024   -0.7270   -0.2531 C.3       1 <0>         0.2700
      6 H3          1.2828   -0.7422   -1.3477 H         1 <0>         0.0000
      7 H4          2.0849   -1.2476    0.1337 H         1 <0>         0.0000
      8 C2         -1.2026   -0.7265   -0.2532 C.3       1 <0>         0.2700
      9 H5         -2.0862   -1.2461    0.1339 H         1 <0>         0.0000
     10 H6         -1.2843   -0.7414   -1.3467 H         1 <0>         0.0000
     11 C3          1.2025    0.7270    0.2531 C.3       1 <0>         0.2700
     12 H7          1.2832    0.7419    1.3475 H         1 <0>         0.0000
     13 H8          2.0861    1.2466   -0.1331 H         1 <0>         0.0000
     14 C4         -1.2016    0.7275    0.2530 C.3       1 <0>         0.2700
     15 H9         -2.0850    1.2481   -0.1328 H         1 <0>         0.0000
     16 H10        -1.2819    0.7427    1.3475 H         1 <0>         0.0000
@<TRIPOS>BOND
     1    1    2 1
     2    1    5 1
     3    1    8 1
     4    3    4 1
     5    3   11 1
     6    3   14 1
     7    5    6 1
     8    5    7 1
     9    5   11 1
    10    8    9 1
    11    8   10 1
    12    8   14 1
    13   11   12 1
    14   11   13 1
    15   14   15 1
    16   14   16 1
