@<TRIPOS>MOLECULE
DB00165
   23    23     0     0     0
SMALL
USER_CHARGES

@<TRIPOS>ATOM
      1 C1          0.0930    1.9830   -0.1793 C.ar      1 <0>         0.1600
      2 H1         -0.2163    3.0237   -0.2439 H         1 <0>         0.1500
      3 C2         -0.8424    0.9480   -0.1804 C.ar      1 <0>        -0.1440
      4 N1          1.4306    1.8138   -0.0958 N.ar      1 <0>        -0.6200
      5 C3         -0.3583   -0.3722   -0.0945 C.ar      1 <0>        -0.1440
      6 C4          1.0322   -0.5569   -0.0121 C.ar      1 <0>         0.0820
      7 C5          1.8883    0.5421   -0.0138 C.ar      1 <0>         0.1660
      8 C6         -2.3061    1.2759   -0.2730 C.3       1 <0>         0.4240
      9 H2         -2.7629    0.7671   -1.1278 H         1 <0>         0.0000
     10 H3         -2.4678    2.3501   -0.4137 H         1 <0>         0.0000
     11 O1         -2.9844    0.8872    0.9138 O.3       1 <0>        -0.6800
     12 H4         -2.4194    1.1264    1.6692 H         1 <0>         0.4000
     13 C7          3.3741    0.3619    0.0754 C.3       1 <0>         0.1440
     14 H5          3.7386   -0.2229   -0.7748 H         1 <0>         0.0000
     15 H6          3.6406   -0.1469    1.0072 H         1 <0>         0.0000
     16 H7          3.8845    1.3306    0.0631 H         1 <0>         0.0000
     17 O2          1.5663   -1.8172    0.0675 O.3       1 <0>        -0.5320
     18 H8          0.7907   -2.4388    0.0103 H         1 <0>         0.4500
     19 C8         -1.3179   -1.5420   -0.0775 C.3       1 <0>         0.4240
     20 H9         -1.9569   -1.5229   -0.9657 H         1 <0>         0.0000
     21 H10        -1.9245   -1.5213    0.8313 H         1 <0>         0.0000
     22 O3         -0.5989   -2.7857   -0.0879 O.3       1 <0>        -0.6800
     23 H11        -1.2831   -3.4832   -0.0975 H         1 <0>         0.4000
@<TRIPOS>BOND
     1    1    2 1
     2    1    3 ar
     3    1    4 ar
     4    3    5 ar
     5    3    8 1
     6    4    7 ar
     7    5    6 ar
     8    5   19 1
     9    6    7 ar
    10    6   17 1
    11    7   13 1
    12    8    9 1
    13    8   10 1
    14    8   11 1
    15   11   12 1
    16   13   14 1
    17   13   15 1
    18   13   16 1
    19   17   18 1
    20   19   20 1
    21   19   21 1
    22   19   22 1
    23   22   23 1
