@<TRIPOS>MOLECULE
DB00847
   11    10     0     0     0
SMALL
USER_CHARGES

@<TRIPOS>ATOM
      1 S1         -2.1884    0.7740   -0.2798 S.3       1 <0>        -0.4100
      2 H1         -3.1316   -0.1530   -0.0541 H         1 <0>         0.1800
      3 N1          1.6912   -0.3564    0.2772 N.3       1 <0>        -0.9900
      4 H2          2.5486    0.1878    0.1785 H         1 <0>         0.3600
      5 H3          1.7548   -1.1068   -0.4097 H         1 <0>         0.3600
      6 C1          0.5424    0.4976   -0.0257 C.3       1 <0>         0.2700
      7 H4          0.5534    1.3496    0.6645 H         1 <0>         0.0000
      8 H5          0.6537    0.8886   -1.0433 H         1 <0>         0.0000
      9 C2         -0.7635   -0.2828    0.1155 C.3       1 <0>         0.2300
     10 H6         -0.8839   -0.6554    1.1387 H         1 <0>         0.0000
     11 H7         -0.7767   -1.1431   -0.5618 H         1 <0>         0.0000
@<TRIPOS>BOND
     1    1    2 1
     2    1    9 1
     3    3    4 1
     4    3    5 1
     5    3    6 1
     6    6    7 1
     7    6    8 1
     8    6    9 1
     9    9   10 1
    10    9   11 1
