@<TRIPOS>MOLECULE
DB00703
   22    22     0     0     0
SMALL
USER_CHARGES

@<TRIPOS>ATOM
      1 S1          3.0491   -1.3154    0.1552 S.o2      1 <0>         1.4150
      2 S2         -0.0258   -1.3523    0.4125 S.3       1 <0>        -0.2820
      3 O1          3.4238   -1.5244    1.5368 O.2       1 <0>        -0.6500
      4 O2          2.9300   -2.4098   -0.7853 O.2       1 <0>        -0.6500
      5 O3         -3.0006   -1.2827    1.6858 O.2       1 <0>        -0.5700
      6 N1          0.1101    1.1751    0.1133 N.pl3     1 <0>        -0.3770
      7 N2          1.4260    0.7997    0.0417 N.2       1 <0>        -0.4920
      8 N3          4.1884   -0.2415   -0.4995 N.pl3     1 <0>        -0.9780
      9 H1          4.7861    0.1689    0.2228 H         1 <0>         0.4200
     10 H2          4.7187   -0.6697   -1.2617 H         1 <0>         0.4200
     11 N4         -2.1288    0.4001    0.3844 N.2       1 <0>        -0.6610
     12 C1          1.4917   -0.4926    0.1831 C.2       1 <0>         0.6140
     13 C2         -0.8508    0.2046    0.3108 C.2       1 <0>         0.6410
     14 C3         -0.1973    2.5828   -0.0189 C.3       1 <0>         0.3690
     15 H3         -0.8601    2.7512   -0.8738 H         1 <0>         0.0000
     16 H4          0.7090    3.1789   -0.1750 H         1 <0>         0.0000
     17 H5         -0.6904    2.9517    0.8854 H         1 <0>         0.0000
     18 C4         -2.9481   -0.6723    0.6235 C.2       1 <0>         0.7200
     19 C5         -3.8644   -0.9990   -0.5251 C.3       1 <0>         0.0610
     20 H6         -4.6158   -0.2121   -0.6299 H         1 <0>         0.0000
     21 H7         -4.3638   -1.9530   -0.3364 H         1 <0>         0.0000
     22 H8         -3.2869   -1.0881   -1.4498 H         1 <0>         0.0000
@<TRIPOS>BOND
     1    1    3 2
     2    1    4 2
     3    1    8 1
     4    1   12 1
     5    2   12 1
     6    2   13 1
     7    5   18 2
     8    6    7 1
     9    6   13 1
    10    6   14 1
    11    7   12 2
    12    8    9 1
    13    8   10 1
    14   11   13 2
    15   11   18 1
    16   14   15 1
    17   14   16 1
    18   14   17 1
    19   18   19 1
    20   19   20 1
    21   19   21 1
    22   19   22 1
