@<TRIPOS>MOLECULE
DB00181
   26    26     0     0     0
SMALL
USER_CHARGES

@<TRIPOS>ATOM
      1 Cl1         5.2576   -0.5423    0.1733 Cl        1 <0>        -0.1770
      2 O1         -3.1182   -1.9171   -0.6446 O.3       1 <0>        -0.6500
      3 H1         -4.0929   -1.9491   -0.7418 H         1 <0>         0.5000
      4 O2         -3.8122   -0.6562    1.0705 O.2       1 <0>        -0.5700
      5 N1         -0.7108    2.4318   -0.8469 N.3       1 <0>        -0.9900
      6 H2         -1.1240    3.3469   -0.6669 H         1 <0>         0.3600
      7 H3         -0.9636    2.1850   -1.8031 H         1 <0>         0.3600
      8 C1         -0.7593    0.0142   -0.1901 C.3       1 <0>         0.1440
      9 H4         -1.0497   -0.2343   -1.2210 H         1 <0>         0.0000
     10 C2          0.7569   -0.1149   -0.0786 C.ar      1 <0>        -0.1440
     11 C3         -1.4302   -1.0021    0.7491 C.3       1 <0>         0.0610
     12 H5         -1.3300   -0.7063    1.8010 H         1 <0>         0.0000
     13 H6         -0.9657   -1.9931    0.6685 H         1 <0>         0.0000
     14 C4         -1.2653    1.4525    0.0867 C.3       1 <0>         0.2700
     15 H7         -1.0194    1.7641    1.1073 H         1 <0>         0.0000
     16 H8         -2.3569    1.4875   -0.0023 H         1 <0>         0.0000
     17 C5          1.4929   -0.6046   -1.1703 C.ar      1 <0>        -0.1500
     18 H9          0.9893   -0.8830   -2.0936 H         1 <0>         0.1500
     19 C6          1.4444    0.2296    1.0967 C.ar      1 <0>        -0.1500
     20 H10         0.9060    0.6082    1.9615 H         1 <0>         0.1500
     21 C7         -2.8930   -1.1576    0.4446 C.2       1 <0>         0.6590
     22 C8          2.8821   -0.7366   -1.0935 C.ar      1 <0>        -0.1500
     23 H11         3.4339   -1.1132   -1.9501 H         1 <0>         0.1500
     24 C9          2.8337    0.0984    1.1746 C.ar      1 <0>        -0.1500
     25 H12         3.3481    0.3753    2.0905 H         1 <0>         0.1500
     26 C10         3.5461   -0.3831    0.0783 C.ar      1 <0>         0.1770
@<TRIPOS>BOND
     1    1   26 1
     2    2    3 1
     3    2   21 1
     4    4   21 2
     5    5    6 1
     6    5    7 1
     7    5   14 1
     8    8    9 1
     9    8   10 1
    10    8   11 1
    11    8   14 1
    12   10   17 ar
    13   10   19 ar
    14   11   12 1
    15   11   13 1
    16   11   21 1
    17   14   15 1
    18   14   16 1
    19   17   18 1
    20   17   22 ar
    21   19   20 1
    22   19   24 ar
    23   22   23 1
    24   22   26 ar
    25   24   25 1
    26   24   26 ar
