@<TRIPOS>MOLECULE
DB00766
   23    24     0     0     0
SMALL
USER_CHARGES

@<TRIPOS>ATOM
      1 O1         -0.0528    1.3107    0.3704 O.3       1 <0>        -0.3350
      2 O2          3.7753   -0.2092   -1.1714 O.2       1 <0>        -0.5700
      3 O3          0.0372   -3.2305   -0.1642 O.3       1 <0>        -0.6500
      4 H1          0.0460   -3.9166    0.5362 H         1 <0>         0.5000
      5 O4          0.8655   -2.1374    1.6011 O.2       1 <0>        -0.5700
      6 O5         -3.9465    0.2625    0.4883 O.3       1 <0>        -0.6800
      7 H2         -4.6045    0.9381    0.7196 H         1 <0>         0.4000
      8 N1          1.6557   -0.0656   -0.2371 N.am      1 <0>        -0.5850
      9 C1          1.3236    0.9903    0.6710 C.3       1 <0>         0.4830
     10 C2          0.5605   -0.9305   -0.5209 C.3       1 <0>         0.4990
     11 H3          0.6034   -1.2338   -1.5692 H         1 <0>         0.0000
     12 C3          2.5558    1.7161    0.0879 C.3       1 <0>         0.0530
     13 H4          3.2791    2.0691    0.8259 H         1 <0>         0.0000
     14 H5          2.3467    2.4954   -0.6487 H         1 <0>         0.0000
     15 C4          2.8899    0.3078   -0.5400 C.2       1 <0>         0.5770
     16 C5         -0.5357    0.0894   -0.1980 C.2       1 <0>        -0.0610
     17 C6          0.5346   -2.1197    0.4256 C.2       1 <0>         0.6590
     18 C7         -1.8354   -0.0683   -0.4884 C.2       1 <0>        -0.2880
     19 H6         -2.1665   -0.9912   -0.9592 H         1 <0>         0.1500
     20 C8         -2.9056    0.9308   -0.2088 C.3       1 <0>         0.4180
     21 H7         -3.3098    1.3197   -1.1484 H         1 <0>         0.0000
     22 H8         -2.5578    1.7681    0.4031 H         1 <0>         0.0000
     23 H9          1.4413    0.7047    1.7253 H         1 <0>         0.0000
@<TRIPOS>BOND
     1    1    9 1
     2    1   16 1
     3    2   15 2
     4    3    4 1
     5    3   17 1
     6    5   17 2
     7    6    7 1
     8    6   20 1
     9    8    9 1
    10    8   10 1
    11    8   15 am
    12    9   12 1
    13    9   23 1
    14   10   11 1
    15   10   16 1
    16   10   17 1
    17   12   13 1
    18   12   14 1
    19   12   15 1
    20   16   18 2
    21   18   19 1
    22   18   20 1
    23   20   21 1
    24   20   22 1
