@<TRIPOS>MOLECULE
DB00272
   18    18     0     0     0
SMALL
USER_CHARGES

@<TRIPOS>ATOM
      1 N1         -2.0015    1.2019   -0.0013 N.pl3     1 <0>         0.3000
      2 N2          2.8009   -0.0567    0.0015 N.4       1 <0>        -0.8530
      3 N3         -3.2363    0.6814   -0.0021 N.2       1 <0>        -0.7070
      4 C1          0.4362    0.6556    0.0022 C.3       1 <0>         0.1800
      5 C2         -1.0020    0.2605    0.0008 C.2       1 <0>        -0.3320
      6 C3          1.3932   -0.5344   -0.0051 C.3       1 <0>         0.5030
      7 C4         -1.6550   -0.9552    0.0021 C.2       1 <0>        -0.1500
      8 C5         -3.0249   -0.6340    0.0000 C.2       1 <0>         0.1390
      9 H1         -1.9128    2.2129   -0.0024 H         1 <0>         0.2700
     10 H2          3.4555   -0.8511   -0.0087 H         1 <0>         0.4500
     11 H3          3.0157    0.4986    0.8404 H         1 <0>         0.4500
     12 H4          3.0165    0.5208   -0.8226 H         1 <0>         0.4500
     13 H5          0.6312    1.2749    0.8872 H         1 <0>         0.0000
     14 H6          0.6314    1.2852   -0.8757 H         1 <0>         0.0000
     15 H7          1.2728   -1.1637    0.8818 H         1 <0>         0.0000
     16 H8          1.2754   -1.1497   -0.9032 H         1 <0>         0.0000
     17 H9         -1.2205   -1.9448    0.0047 H         1 <0>         0.1500
     18 H10        -3.8757   -1.3025    0.0006 H         1 <0>         0.1500
@<TRIPOS>BOND
     1    1    3 1
     2    1    5 1
     3    1    9 1
     4    2    6 1
     5    2   10 1
     6    2   11 1
     7    2   12 1
     8    3    8 2
     9    4    5 1
    10    4    6 1
    11    4   13 1
    12    4   14 1
    13    5    7 2
    14    6   15 1
    15    6   16 1
    16    7    8 1
    17    7   17 1
    18    8   18 1
