@<TRIPOS>MOLECULE
DB00322
   28    29     0     0     0
SMALL
USER_CHARGES

@<TRIPOS>ATOM
      1 F1          2.5682   -2.9438   -0.9540 F         1 <0>        -0.1500
      2 O1         -0.9102   -0.2462    1.1828 O.3       1 <0>        -0.5600
      3 O2         -2.5969    1.6663   -1.3541 O.3       1 <0>        -0.6800
      4 H1         -2.1809    2.2317   -2.0288 H         1 <0>         0.4000
      5 O3         -3.4720   -1.7602    1.1669 O.3       1 <0>        -0.6800
      6 H2         -3.8625   -2.6040    0.8803 H         1 <0>         0.4000
      7 O4          2.5233    2.0697    1.0233 O.2       1 <0>        -0.5700
      8 O5          4.8550   -1.4309   -0.7108 O.2       1 <0>        -0.5700
      9 N1          1.3418    0.1471    0.4717 N.am      1 <0>        -0.4690
     10 N2          3.6648    0.3095    0.1685 N.am      1 <0>        -0.4900
     11 H3          4.5132    0.8515    0.2512 H         1 <0>         0.3700
     12 C1         -1.5838    0.8742   -0.7661 C.3       1 <0>         0.2800
     13 H4         -1.1555    0.2127   -1.5277 H         1 <0>         0.0000
     14 C2          0.0869    0.7588    0.9129 C.3       1 <0>         0.5800
     15 H5          0.2794    1.2987    1.8484 H         1 <0>         0.0000
     16 C3         -0.5016    1.7105   -0.1259 C.3       1 <0>         0.0000
     17 H6         -0.9474    2.5828    0.3694 H         1 <0>         0.0000
     18 H7          0.2223    2.0961   -0.8505 H         1 <0>         0.0000
     19 C4         -2.0943    0.0841    0.4277 C.3       1 <0>         0.2800
     20 H8         -2.7350    0.7012    1.0720 H         1 <0>         0.0000
     21 C5         -2.8502   -1.1787    0.0231 C.3       1 <0>         0.2800
     22 H9         -2.1663   -1.9221   -0.3996 H         1 <0>         0.0000
     23 H10        -3.6349   -0.9500   -0.7048 H         1 <0>         0.0000
     24 C6          2.5012    0.9191    0.5890 C.2       1 <0>         0.6900
     25 C7          1.3822   -1.1356   -0.0481 C.2       1 <0>        -0.0410
     26 H11         0.4510   -1.6873   -0.1147 H         1 <0>         0.1500
     27 C8          2.5195   -1.6968   -0.4497 C.2       1 <0>         0.1640
     28 C9          3.7826   -0.9580   -0.3525 C.2       1 <0>         0.6160
@<TRIPOS>BOND
     1    1   27 1
     2    2   14 1
     3    2   19 1
     4    3    4 1
     5    3   12 1
     6    5    6 1
     7    5   21 1
     8    7   24 2
     9    8   28 2
    10    9   14 1
    11    9   24 am
    12    9   25 1
    13   10   11 1
    14   10   24 am
    15   10   28 am
    16   12   13 1
    17   12   16 1
    18   12   19 1
    19   14   15 1
    20   14   16 1
    21   16   17 1
    22   16   18 1
    23   19   20 1
    24   19   21 1
    25   21   22 1
    26   21   23 1
    27   25   26 1
    28   25   27 2
    29   27   28 1
