@<TRIPOS>MOLECULE
DB00345
   24    24     0     0     0
SMALL
USER_CHARGES

@<TRIPOS>ATOM
      1 O1          0.9943    2.2164    0.6817 O.2       1 <0>        -0.5700
      2 O2          5.3597   -0.4026   -0.2036 O.3       1 <0>        -0.6500
      3 H1          5.8031   -1.2350   -0.4723 H         1 <0>         0.5000
      4 O3          3.6145   -1.7512   -0.6111 O.2       1 <0>        -0.5700
      5 N1          1.7966    0.1737   -0.0004 N.am      1 <0>        -0.7300
      6 H2          1.5879   -0.7577   -0.3481 H         1 <0>         0.3700
      7 N2         -4.5680   -0.7477   -0.1920 N.pl3     1 <0>        -0.9000
      8 H3         -4.8162   -1.7178   -0.0503 H         1 <0>         0.4000
      9 H4         -5.3027   -0.0981   -0.4361 H         1 <0>         0.4000
     10 C1         -0.5976    0.5522    0.2045 C.ar      1 <0>         0.0860
     11 C2          0.7940    1.0592    0.3295 C.2       1 <0>         0.5440
     12 C3         -1.6103    1.4643   -0.1108 C.ar      1 <0>        -0.1500
     13 H5         -1.3773    2.5162   -0.2603 H         1 <0>         0.1500
     14 C4         -0.9213   -0.7932    0.4119 C.ar      1 <0>        -0.1500
     15 H6         -0.1686   -1.5209    0.7008 H         1 <0>         0.1500
     16 C5         -3.2613   -0.3192   -0.0561 C.ar      1 <0>         0.1000
     17 C6         -2.9307    1.0255   -0.2451 C.ar      1 <0>        -0.1500
     18 H7         -3.7011    1.7490   -0.4986 H         1 <0>         0.1500
     19 C7         -2.2464   -1.2197    0.2782 C.ar      1 <0>        -0.1500
     20 H8         -2.4830   -2.2681    0.4435 H         1 <0>         0.1500
     21 C8          3.1977    0.5375    0.1160 C.3       1 <0>         0.3610
     22 H9          3.4013    0.8225    1.1514 H         1 <0>         0.0000
     23 H10         3.3970    1.3716   -0.5620 H         1 <0>         0.0000
     24 C9          4.0386   -0.6566   -0.2706 C.2       1 <0>         0.6590
@<TRIPOS>BOND
     1    1   11 2
     2    2    3 1
     3    2   24 1
     4    4   24 2
     5    5    6 1
     6    5   11 am
     7    5   21 1
     8    7    8 1
     9    7    9 1
    10    7   16 1
    11   10   11 1
    12   10   12 ar
    13   10   14 ar
    14   12   13 1
    15   12   17 ar
    16   14   15 1
    17   14   19 ar
    18   16   17 ar
    19   16   19 ar
    20   17   18 1
    21   19   20 1
    22   21   22 1
    23   21   23 1
    24   21   24 1
