@<TRIPOS>MOLECULE
DB00139
   14    13     0     0     0
SMALL
USER_CHARGES

@<TRIPOS>ATOM
      1 O1         -2.9435   -0.6110   -0.0074 O.3       1 <0>        -0.6500
      2 H1         -3.7408   -0.0421   -0.0080 H         1 <0>         0.5000
      3 O2          2.9439    0.6104   -0.0109 O.3       1 <0>        -0.6500
      4 H2          3.7413    0.0415   -0.0123 H         1 <0>         0.5000
      5 O3         -2.0724    1.4499    0.0035 O.2       1 <0>        -0.5700
      6 O4          2.0726   -1.4496    0.0093 O.2       1 <0>        -0.5700
      7 C1         -0.5864   -0.4866    0.0009 C.3       1 <0>         0.0610
      8 H3         -0.5477   -1.1264    0.8905 H         1 <0>         0.0000
      9 H4         -0.5434   -1.1223   -0.8905 H         1 <0>         0.0000
     10 C2          0.5866    0.4869    0.0058 C.3       1 <0>         0.0610
     11 H5          0.5458    1.1207    0.8992 H         1 <0>         0.0000
     12 H6          0.5448    1.1285   -0.8818 H         1 <0>         0.0000
     13 C3         -1.9004    0.2430   -0.0006 C.2       1 <0>         0.6590
     14 C4          1.8997   -0.2428    0.0023 C.2       1 <0>         0.6590
@<TRIPOS>BOND
     1    1    2 1
     2    1   13 1
     3    3    4 1
     4    3   14 1
     5    5   13 2
     6    6   14 2
     7    7    8 1
     8    7    9 1
     9    7   10 1
    10    7   13 1
    11   10   11 1
    12   10   12 1
    13   10   14 1
