@<TRIPOS>MOLECULE
DB00780
   22    22     0     0     0
SMALL
USER_CHARGES

@<TRIPOS>ATOM
      1 N1         -3.0492    0.0142   -0.3930 N.3       1 <0>        -0.6300
      2 H1         -3.2099   -0.8630   -0.8958 H         1 <0>         0.3600
      3 N2         -3.9972    0.1724    0.6756 N.3       1 <0>        -0.7200
      4 H2         -3.9576    1.1189    1.0617 H         1 <0>         0.3600
      5 H3         -3.8238   -0.4683    1.4536 H         1 <0>         0.3600
      6 C1         -0.6717   -0.0709   -1.0139 C.3       1 <0>         0.1440
      7 H4         -0.8341   -1.0037   -1.5711 H         1 <0>         0.0000
      8 H5         -0.8198    0.7408   -1.7371 H         1 <0>         0.0000
      9 C2          0.7509   -0.0350   -0.5086 C.ar      1 <0>        -0.1440
     10 C3         -1.6790    0.0475    0.1347 C.3       1 <0>         0.2700
     11 H6         -1.5089    0.9877    0.6746 H         1 <0>         0.0000
     12 H7         -1.5293   -0.7756    0.8464 H         1 <0>         0.0000
     13 C4          1.4167    1.1884   -0.3518 C.ar      1 <0>        -0.1500
     14 H8          0.9208    2.1216   -0.6100 H         1 <0>         0.1500
     15 C5          1.4122   -1.2195   -0.1591 C.ar      1 <0>        -0.1500
     16 H9          0.9140   -2.1806   -0.2661 H         1 <0>         0.1500
     17 C6          2.7230    1.2248    0.1377 C.ar      1 <0>        -0.1500
     18 H10         3.2332    2.1777    0.2537 H         1 <0>         0.1500
     19 C7          2.7192   -1.1816    0.3307 C.ar      1 <0>        -0.1500
     20 H11         3.2259   -2.1045    0.5978 H         1 <0>         0.1500
     21 C8          3.3737    0.0400    0.4792 C.ar      1 <0>        -0.1500
     22 H12         4.3911    0.0687    0.8609 H         1 <0>         0.1500
@<TRIPOS>BOND
     1    1    2 1
     2    1    3 1
     3    1   10 1
     4    3    4 1
     5    3    5 1
     6    6    7 1
     7    6    8 1
     8    6    9 1
     9    6   10 1
    10    9   13 ar
    11    9   15 ar
    12   10   11 1
    13   10   12 1
    14   13   14 1
    15   13   17 ar
    16   15   16 1
    17   15   19 ar
    18   17   18 1
    19   17   21 ar
    20   19   20 1
    21   19   21 ar
    22   21   22 1
