@<TRIPOS>MOLECULE
DB00250
   29    30     0     0     0
SMALL
USER_CHARGES

@<TRIPOS>ATOM
      1 S1         -0.0011    0.1601    2.0121 S.o2      1 <0>         1.3180
      2 O1          0.0013   -1.0377    2.8329 O.2       1 <0>        -0.6500
      3 O2         -0.0029    1.4703    2.6380 O.2       1 <0>        -0.6500
      4 N1          4.7981   -0.0807   -1.5066 N.pl3     1 <0>        -0.9000
      5 N2         -4.7957   -0.1605   -1.5037 N.pl3     1 <0>        -0.9000
      6 C1          1.4160    0.0851    0.9486 C.ar      1 <0>        -0.0090
      7 C2         -1.4172    0.0695    0.9499 C.ar      1 <0>        -0.0090
      8 C3          2.0213   -1.1447    0.6916 C.ar      1 <0>        -0.1500
      9 C4         -1.9076   -1.1795    0.5673 C.ar      1 <0>        -0.1500
     10 C5          1.9330    1.2615    0.4069 C.ar      1 <0>        -0.1500
     11 C6         -2.0480    1.2407    0.5344 C.ar      1 <0>        -0.1500
     12 C7          3.1463   -1.1928   -0.1350 C.ar      1 <0>        -0.1500
     13 C8         -3.0337   -1.2482   -0.2569 C.ar      1 <0>        -0.1500
     14 C9          3.0591    1.1986   -0.4169 C.ar      1 <0>        -0.1500
     15 C10        -3.1721    1.1566   -0.2900 C.ar      1 <0>        -0.1500
     16 C11         3.6773   -0.0258   -0.6960 C.ar      1 <0>         0.1000
     17 C12        -3.6774   -0.0849   -0.6932 C.ar      1 <0>         0.1000
     18 H1          5.1877    0.7612   -1.9074 H         1 <0>         0.4000
     19 H2          5.2458   -0.9633   -1.7113 H         1 <0>         0.4000
     20 H3         -5.2639    0.6771   -1.8199 H         1 <0>         0.4000
     21 H4         -5.1647   -1.0564   -1.7933 H         1 <0>         0.4000
     22 H5          1.6360   -2.0648    1.1242 H         1 <0>         0.1500
     23 H6         -1.4336   -2.0989    0.9026 H         1 <0>         0.1500
     24 H7          1.4781    2.2270    0.6167 H         1 <0>         0.1500
     25 H8         -1.6830    2.2179    0.8423 H         1 <0>         0.1500
     26 H9          3.6137   -2.1548   -0.3345 H         1 <0>         0.1500
     27 H10        -3.4123   -2.2240   -0.5525 H         1 <0>         0.1500
     28 H11         3.4586    2.1182   -0.8376 H         1 <0>         0.1500
     29 H12        -3.6591    2.0734   -0.6125 H         1 <0>         0.1500
@<TRIPOS>BOND
     1    1    2 2
     2    1    3 2
     3    1    6 1
     4    1    7 1
     5    4   16 1
     6    4   18 1
     7    4   19 1
     8    5   17 1
     9    5   20 1
    10    5   21 1
    11    6    8 ar
    12    6   10 ar
    13    7    9 ar
    14    7   11 ar
    15    8   12 ar
    16    8   22 1
    17    9   13 ar
    18    9   23 1
    19   10   14 ar
    20   10   24 1
    21   11   15 ar
    22   11   25 1
    23   12   16 ar
    24   12   26 1
    25   13   17 ar
    26   13   27 1
    27   14   16 ar
    28   14   28 1
    29   15   17 ar
    30   15   29 1
