@<TRIPOS>MOLECULE
DB00160
   13    12     0     0     0
SMALL
USER_CHARGES

@<TRIPOS>ATOM
      1 C1         -0.9513   -0.7169   -0.0511 C.2       1 <0>         0.6590
      2 C2          0.2314    0.1548   -0.4701 C.3       1 <0>         0.3310
      3 H1          0.2842    0.1274   -1.5638 H         1 <0>         0.0000
      4 O1         -2.1084   -0.0209    0.0495 O.3       1 <0>        -0.6500
      5 H2         -2.7832   -0.6901    0.2916 H         1 <0>         0.5000
      6 O2         -0.9351   -1.9221    0.1421 O.2       1 <0>        -0.5700
      7 N1          0.0196    1.5538   -0.0469 N.3       1 <0>        -0.9900
      8 H3          0.0553    1.6066    0.9717 H         1 <0>         0.3600
      9 H4         -0.9489    1.7941   -0.2834 H         1 <0>         0.3600
     10 C3          1.5315   -0.3661    0.1263 C.3       1 <0>         0.0000
     11 H5          1.4894   -0.3951    1.2213 H         1 <0>         0.0000
     12 H6          2.3810    0.2604   -0.1684 H         1 <0>         0.0000
     13 H7          1.7345   -1.3858   -0.2190 H         1 <0>         0.0000
@<TRIPOS>BOND
     1    1    2 1
     2    1    4 1
     3    1    6 2
     4    2    3 1
     5    2    7 1
     6    2   10 1
     7    4    5 1
     8    7    8 1
     9    7    9 1
    10   10   11 1
    11   10   12 1
    12   10   13 1
