@<TRIPOS>MOLECULE
DB00752
   21    22     0     0     0
SMALL
USER_CHARGES

@<TRIPOS>ATOM
      1 N1         -2.0322   -1.1299   -1.0941 N.3       1 <0>        -0.8780
      2 H1         -2.8775   -1.1997   -1.6596 H         1 <0>         0.3600
      3 H2         -1.7853   -2.0805   -0.8232 H         1 <0>         0.3600
      4 C1         -1.1328    0.3830    0.8327 C.3       1 <0>        -0.0680
      5 H3         -1.2883    0.4976    1.9048 H         1 <0>         0.1000
      6 C2         -2.2641   -0.2963    0.0871 C.3       1 <0>         0.0580
      7 H4         -3.1006   -0.6249    0.7003 H         1 <0>         0.1000
      8 C3         -2.0719    1.1820   -0.0422 C.3       1 <0>        -0.2000
      9 H5         -1.7126    1.5650   -0.9906 H         1 <0>         0.1000
     10 H6         -2.7888    1.8301    0.4476 H         1 <0>         0.1000
     11 C4          0.3162    0.1957    0.4416 C.ar      1 <0>        -0.0320
     12 C5          0.9419   -1.0588    0.5581 C.ar      1 <0>        -0.1500
     13 H7          0.3671   -1.9104    0.9141 H         1 <0>         0.1500
     14 C6          1.1072    1.2687   -0.0029 C.ar      1 <0>        -0.1500
     15 H8          0.6683    2.2604   -0.0892 H         1 <0>         0.1500
     16 C7          2.2867   -1.2393    0.2258 C.ar      1 <0>        -0.1500
     17 H9          2.7419   -2.2214    0.3199 H         1 <0>         0.1500
     18 C8          2.4542    1.0954   -0.3371 C.ar      1 <0>        -0.1500
     19 H10         3.0393    1.9425   -0.6832 H         1 <0>         0.1500
     20 C9          3.0425   -0.1608   -0.2255 C.ar      1 <0>        -0.1500
     21 H11         4.0887   -0.2984   -0.4843 H         1 <0>         0.1500
@<TRIPOS>BOND
     1    1    2 1
     2    1    3 1
     3    1    6 1
     4    4    5 1
     5    4    6 1
     6    4    8 1
     7    4   11 1
     8    6    7 1
     9    6    8 1
    10    8    9 1
    11    8   10 1
    12   11   12 ar
    13   11   14 ar
    14   12   13 1
    15   12   16 ar
    16   14   15 1
    17   14   18 ar
    18   16   17 1
    19   16   20 ar
    20   18   19 1
    21   18   20 ar
    22   20   21 1
