@<TRIPOS>MOLECULE
DB00384
   30    32     0     0     0
SMALL
USER_CHARGES

@<TRIPOS>ATOM
      1 N1         -0.2782   -0.6689    0.0881 N.ar      1 <0>        -0.6200
      2 N2         -1.2202    1.9189   -0.2879 N.ar      1 <0>        -0.6200
      3 N3         -3.3870    1.2039   -0.1394 N.ar      1 <0>        -0.6200
      4 N4         -3.9107   -1.0661    0.2038 N.ar      1 <0>        -0.6200
      5 N5          0.9220    2.7530   -0.5007 N.pl3     1 <0>        -0.9000
      6 H1          1.9255    2.6838   -0.5732 H         1 <0>         0.4000
      7 H2          0.4584    3.6437   -0.6120 H         1 <0>         0.4000
      8 N6         -2.2518   -2.6716    0.4146 N.pl3     1 <0>        -0.9000
      9 H3         -1.2732   -2.9274    0.4439 H         1 <0>         0.4000
     10 H4         -2.9932   -3.3469    0.5225 H         1 <0>         0.4000
     11 N7         -5.5912    0.5101   -0.0008 N.pl3     1 <0>        -0.9000
     12 H5         -6.2566   -0.2357    0.1197 H         1 <0>         0.4000
     13 H6         -5.8601    1.4709   -0.1385 H         1 <0>         0.4000
     14 C1          0.5837    0.3657   -0.0711 C.ar      1 <0>         0.3100
     15 C2         -1.6083   -0.3794    0.0650 C.ar      1 <0>         0.3100
     16 C3          2.0055    0.0001   -0.0098 C.ar      1 <0>         0.0000
     17 C4         -2.0875    0.9157   -0.1190 C.ar      1 <0>         0.6200
     18 C5          0.1081    1.6642   -0.2762 C.ar      1 <0>         0.4100
     19 C6         -2.5958   -1.3428    0.2234 C.ar      1 <0>         0.4100
     20 C7          2.5232   -0.9950   -0.8567 C.ar      1 <0>        -0.1500
     21 H7          1.8703   -1.5022   -1.5651 H         1 <0>         0.1500
     22 C8          2.8833    0.6128    0.9024 C.ar      1 <0>        -0.1500
     23 H8          2.5181    1.3673    1.5973 H         1 <0>         0.1500
     24 C9         -4.2570    0.2065    0.0221 C.ar      1 <0>         0.7200
     25 C10         3.8745   -1.3502   -0.8096 C.ar      1 <0>        -0.1500
     26 H9          4.2567   -2.1187   -1.4753 H         1 <0>         0.1500
     27 C11         4.2342    0.2585    0.9498 C.ar      1 <0>        -0.1500
     28 H10         4.8978    0.7438    1.6615 H         1 <0>         0.1500
     29 C12         4.7293   -0.7193    0.0918 C.ar      1 <0>        -0.1500
     30 H11         5.7803   -0.9948    0.1293 H         1 <0>         0.1500
@<TRIPOS>BOND
     1    1   14 ar
     2    1   15 ar
     3    2   17 ar
     4    2   18 ar
     5    3   17 ar
     6    3   24 ar
     7    4   19 ar
     8    4   24 ar
     9    5    6 1
    10    5    7 1
    11    5   18 1
    12    8    9 1
    13    8   10 1
    14    8   19 1
    15   11   12 1
    16   11   13 1
    17   11   24 1
    18   14   16 1
    19   14   18 ar
    20   15   17 ar
    21   15   19 ar
    22   16   20 ar
    23   16   22 ar
    24   20   21 1
    25   20   25 ar
    26   22   23 1
    27   22   27 ar
    28   25   26 1
    29   25   29 ar
    30   27   28 1
    31   27   29 ar
    32   29   30 1
