@<TRIPOS>MOLECULE
DB00629
   22    22     0     0     0
SMALL
USER_CHARGES

@<TRIPOS>ATOM
      1 Cl1        -0.5190    2.2535   -0.6682 Cl        1 <0>        -0.1770
      2 Cl2        -2.0606   -2.9673    0.3077 Cl        1 <0>        -0.1770
      3 N1          1.0806   -0.1436    0.1092 N.2       1 <0>        -0.4500
      4 N2          2.2640   -0.8590   -0.1023 N.2       1 <0>        -0.4500
      5 N3          4.5699   -0.6119   -0.0862 N.pl3     1 <0>        -0.8500
      6 H1          4.6783   -1.5869   -0.3297 H         1 <0>         0.4000
      7 H2          5.3948   -0.0469    0.0354 H         1 <0>         0.4000
      8 N4          3.3064    1.1961    0.3860 N.pl3     1 <0>        -0.8500
      9 H3          2.3847    1.6030    0.4966 H         1 <0>         0.4000
     10 H4          4.1288    1.7616    0.5135 H         1 <0>         0.4000
     11 C1         -1.3308   -0.3450   -0.1488 C.ar      1 <0>         0.0860
     12 C2         -1.6645    1.0143   -0.2823 C.ar      1 <0>         0.1770
     13 C3         -2.3553   -1.2736    0.1027 C.ar      1 <0>         0.1770
     14 C4         -2.9976    1.4272   -0.1520 C.ar      1 <0>        -0.1500
     15 H5         -3.2621    2.4770   -0.2588 H         1 <0>         0.1500
     16 C5         -3.6827   -0.8492    0.2293 C.ar      1 <0>        -0.1500
     17 H6         -4.4754   -1.5669    0.4305 H         1 <0>         0.1500
     18 C6         -4.0034    0.4989    0.1042 C.ar      1 <0>        -0.1500
     19 H7         -5.0352    0.8269    0.2037 H         1 <0>         0.1500
     20 C7          0.0572   -0.8372   -0.2710 C.2       1 <0>         0.3040
     21 H8          0.2012   -1.8528   -0.6817 H         1 <0>         0.0600
     22 C8          3.3207   -0.1181    0.0622 C.2       1 <0>         0.5500
@<TRIPOS>BOND
     1    1   12 1
     2    2   13 1
     3    3    4 1
     4    3   20 2
     5    4   22 2
     6    5    6 1
     7    5    7 1
     8    5   22 1
     9    8    9 1
    10    8   10 1
    11    8   22 1
    12   11   12 ar
    13   11   13 ar
    14   11   20 1
    15   12   14 ar
    16   13   16 ar
    17   14   15 1
    18   14   18 ar
    19   16   17 1
    20   16   18 ar
    21   18   19 1
    22   20   21 1
