@<TRIPOS>MOLECULE
DB00135
   24    24     0     0     0
SMALL
USER_CHARGES

@<TRIPOS>ATOM
      1 O1         -3.6986    1.3869   -0.1345 O.3       1 <0>        -0.6500
      2 H1         -4.6418    1.3554   -0.4002 H         1 <0>         0.5000
      3 O2          4.4911    0.4783    0.3804 O.3       1 <0>        -0.5320
      4 H2          4.9280   -0.3805    0.2711 H         1 <0>         0.4500
      5 O3         -4.1662   -0.8012   -0.0739 O.2       1 <0>        -0.5700
      6 N1         -1.7371   -1.2658    1.3177 N.3       1 <0>        -0.9900
      7 H3         -0.7452   -1.4313    1.4865 H         1 <0>         0.3600
      8 H4         -2.0837   -2.0659    0.7867 H         1 <0>         0.3600
      9 C1         -1.0354   -0.0390   -0.7571 C.3       1 <0>         0.1440
     10 H5         -1.2283   -0.9459   -1.3460 H         1 <0>         0.0000
     11 H6         -1.3244    0.7915   -1.4153 H         1 <0>         0.0000
     12 C2         -1.9007   -0.0381    0.5137 C.3       1 <0>         0.3310
     13 H7         -1.6561    0.8096    1.1643 H         1 <0>         0.0000
     14 C3          0.4421    0.0871   -0.4706 C.ar      1 <0>        -0.1440
     15 C4          0.9812    1.3187   -0.0702 C.ar      1 <0>        -0.1500
     16 H8          0.3430    2.1955    0.0251 H         1 <0>         0.1500
     17 C5          1.2891   -1.0238   -0.5884 C.ar      1 <0>        -0.1500
     18 H9          0.8941   -1.9886   -0.9016 H         1 <0>         0.1500
     19 C6         -3.3600    0.0992    0.0976 C.2       1 <0>         0.6590
     20 C7          2.3417    1.4349    0.2110 C.ar      1 <0>        -0.1500
     21 H10         2.7574    2.3898    0.5221 H         1 <0>         0.1500
     22 C8          2.6526   -0.9083   -0.3066 C.ar      1 <0>        -0.1500
     23 H11         3.2908   -1.7815   -0.4047 H         1 <0>         0.1500
     24 C9          3.1665    0.3230    0.0928 C.ar      1 <0>         0.0820
@<TRIPOS>BOND
     1    1    2 1
     2    1   19 1
     3    3    4 1
     4    3   24 1
     5    5   19 2
     6    6    7 1
     7    6    8 1
     8    6   12 1
     9    9   10 1
    10    9   11 1
    11    9   12 1
    12    9   14 1
    13   12   13 1
    14   12   19 1
    15   14   15 ar
    16   14   17 ar
    17   15   16 1
    18   15   20 ar
    19   17   18 1
    20   17   22 ar
    21   20   21 1
    22   20   24 ar
    23   22   23 1
    24   22   24 ar
