@<TRIPOS>MOLECULE
DB00610
   25    25     0     0     0
SMALL
USER_CHARGES

@<TRIPOS>ATOM
      1 O1          1.4182   -1.2101    1.4868 O.3       1 <0>        -0.6800
      2 H1          2.3305   -0.9766    1.7404 H         1 <0>         0.4000
      3 O2         -3.5107    1.9191   -0.2249 O.3       1 <0>        -0.5320
      4 H2         -3.0078    2.7249   -0.0230 H         1 <0>         0.4500
      5 N1          3.1828    0.6749    0.3657 N.3       1 <0>        -0.9900
      6 H3          3.6788    1.3675   -0.1976 H         1 <0>         0.3600
      7 H4          3.6905   -0.1959    0.1924 H         1 <0>         0.3600
      8 C1          0.8785    0.0134    0.9748 C.3       1 <0>         0.4240
      9 H5          0.8896    0.7172    1.8176 H         1 <0>         0.0000
     10 C2          1.8028    0.5535   -0.1520 C.3       1 <0>         0.2700
     11 H6          1.4592    1.5541   -0.4406 H         1 <0>         0.0000
     12 C3         -0.5684   -0.1561    0.5518 C.ar      1 <0>        -0.1440
     13 C4          1.8259   -0.3294   -1.4031 C.3       1 <0>         0.0000
     14 H7          2.1237   -1.3579   -1.1702 H         1 <0>         0.0000
     15 H8          2.5292    0.0657   -2.1444 H         1 <0>         0.0000
     16 H9          0.8419   -0.3628   -1.8816 H         1 <0>         0.0000
     17 C5         -1.3753    0.9801    0.3661 C.ar      1 <0>        -0.1500
     18 H10        -0.9597    1.9693    0.5385 H         1 <0>         0.1500
     19 C6         -1.1283   -1.4231    0.3260 C.ar      1 <0>        -0.1500
     20 H11        -0.5267   -2.3188    0.4635 H         1 <0>         0.1500
     21 C7         -2.7024    0.8354   -0.0358 C.ar      1 <0>         0.0820
     22 C8         -2.4602   -1.5559   -0.0759 C.ar      1 <0>        -0.1500
     23 H12        -2.8790   -2.5441   -0.2455 H         1 <0>         0.1500
     24 C9         -3.2490   -0.4236   -0.2583 C.ar      1 <0>        -0.1500
     25 H13        -4.2840   -0.5206   -0.5706 H         1 <0>         0.1500
@<TRIPOS>BOND
     1    1    2 1
     2    1    8 1
     3    3    4 1
     4    3   21 1
     5    5    6 1
     6    5    7 1
     7    5   10 1
     8    8    9 1
     9    8   10 1
    10    8   12 1
    11   10   11 1
    12   10   13 1
    13   12   17 ar
    14   12   19 ar
    15   13   14 1
    16   13   15 1
    17   13   16 1
    18   17   18 1
    19   17   21 ar
    20   19   20 1
    21   19   22 ar
    22   21   24 ar
    23   22   23 1
    24   22   24 ar
    25   24   25 1
