@<TRIPOS>MOLECULE
DB00388
   25    25     0     0     0
SMALL
USER_CHARGES

@<TRIPOS>ATOM
      1 O1         -0.7638   -1.1138   -1.6588 O.3       1 <0>        -0.6800
      2 H1         -1.7302   -1.2537   -1.5641 H         1 <0>         0.4000
      3 O2          3.7194   -1.9452    0.5407 O.3       1 <0>        -0.5320
      4 H2          3.1981   -2.7369    0.3277 H         1 <0>         0.4500
      5 N1         -2.8883   -0.0650   -0.3004 N.3       1 <0>        -0.9000
      6 H3         -3.1588    0.7072   -0.9143 H         1 <0>         0.3600
      7 C1         -0.5286    0.1104   -0.9510 C.3       1 <0>         0.4240
      8 H4         -0.7234    0.9192   -1.6662 H         1 <0>         0.0000
      9 C2         -1.5300    0.1838    0.2200 C.3       1 <0>         0.2700
     10 H5         -1.4721    1.1593    0.7177 H         1 <0>         0.0000
     11 H6         -1.2832   -0.5929    0.9550 H         1 <0>         0.0000
     12 C3          0.9043    0.1960   -0.4769 C.ar      1 <0>        -0.1440
     13 C4          1.6534   -0.9559   -0.1939 C.ar      1 <0>        -0.1500
     14 H7          1.2030   -1.9347   -0.3389 H         1 <0>         0.1500
     15 C5          1.4982    1.4539   -0.2783 C.ar      1 <0>        -0.1500
     16 H8          0.9401    2.3653   -0.4849 H         1 <0>         0.1500
     17 C6          2.9649   -0.8419    0.2648 C.ar      1 <0>         0.0820
     18 C7          2.8130    1.5574    0.1837 C.ar      1 <0>        -0.1500
     19 H9          3.2623    2.5356    0.3308 H         1 <0>         0.1500
     20 C8          3.5479    0.4055    0.4553 C.ar      1 <0>        -0.1500
     21 H10         4.5707    0.4794    0.8132 H         1 <0>         0.1500
     22 C9         -3.8498   -0.1397    0.7943 C.3       1 <0>         0.2700
     23 H11        -3.6205   -0.9726    1.4672 H         1 <0>         0.0000
     24 H12        -4.8511   -0.3121    0.3877 H         1 <0>         0.0000
     25 H13        -3.8754    0.7912    1.3695 H         1 <0>         0.0000
@<TRIPOS>BOND
     1    1    2 1
     2    1    7 1
     3    3    4 1
     4    3   17 1
     5    5    6 1
     6    5    9 1
     7    5   22 1
     8    7    8 1
     9    7    9 1
    10    7   12 1
    11    9   10 1
    12    9   11 1
    13   12   13 ar
    14   12   15 ar
    15   13   14 1
    16   13   17 ar
    17   15   16 1
    18   15   18 ar
    19   17   20 ar
    20   18   19 1
    21   18   20 ar
    22   20   21 1
    23   22   23 1
    24   22   24 1
    25   22   25 1
