@<TRIPOS>MOLECULE
DB00859
   20    19     0     0     0
SMALL
USER_CHARGES

@<TRIPOS>ATOM
      1 C1          1.8030    0.7323    0.4924 C.3       1 <0>         0.0000
      2 H1          1.7664    0.6526    1.5853 H         1 <0>         0.0000
      3 H2          1.7898    1.7982    0.2414 H         1 <0>         0.0000
      4 H3          2.7727    0.3314    0.1742 H         1 <0>         0.0000
      5 C2          0.8123   -1.5331    0.1636 C.3       1 <0>         0.0000
      6 H4          0.0992   -2.1647   -0.3785 H         1 <0>         0.0000
      7 H5          0.6812   -1.7264    1.2349 H         1 <0>         0.0000
      8 H6          1.8176   -1.8809   -0.1044 H         1 <0>         0.0000
      9 C3         -0.7308    0.5091    0.3933 C.3       1 <0>         0.3310
     10 C4         -1.9545   -0.2301   -0.1578 C.2       1 <0>         0.6590
     11 C5          0.6278   -0.0376   -0.1440 C.3       1 <0>         0.2300
     12 N1         -0.9000    1.9609    0.1206 N.3       1 <0>        -0.9900
     13 H7         -1.8450    2.2432    0.3837 H         1 <0>         0.3600
     14 H8         -0.8564    2.0914   -0.8945 H         1 <0>         0.3600
     15 O1         -2.7064    0.1606   -1.0374 O.2       1 <0>        -0.5700
     16 O2         -2.1867   -1.4003    0.4727 O.3       1 <0>        -0.6500
     17 H9         -2.9949   -1.7606    0.0498 H         1 <0>         0.5000
     18 S1          0.7628    0.1729   -1.9771 S.3       1 <0>        -0.4100
     19 H10         2.0035   -0.3201   -2.1040 H         1 <0>         0.1800
     20 H11        -0.7616    0.4014    1.4858 H         1 <0>         0.0000
@<TRIPOS>BOND
     1    1    2 1
     2    1    3 1
     3    1    4 1
     4    1   11 1
     5    5    6 1
     6    5    7 1
     7    5    8 1
     8    5   11 1
     9    9   10 1
    10    9   11 1
    11    9   12 1
    12    9   20 1
    13   10   15 2
    14   10   16 1
    15   11   18 1
    16   12   13 1
    17   12   14 1
    18   16   17 1
    19   18   19 1
