@<TRIPOS>MOLECULE
DB00368
   23    23     0     0     0
SMALL
USER_CHARGES

@<TRIPOS>ATOM
      1 O1         -1.7137   -1.3782   -1.0973 O.3       1 <0>        -0.6800
      2 H1         -2.6526   -1.5029   -0.8345 H         1 <0>         0.4000
      3 O2          3.1446   -1.7829    0.2658 O.3       1 <0>        -0.5320
      4 H2          2.6514   -2.6189    0.1871 H         1 <0>         0.4500
      5 O3          4.1140    0.7276    0.3401 O.3       1 <0>        -0.5320
      6 H3          4.4729   -0.1783    0.4359 H         1 <0>         0.4500
      7 N1         -3.6548   -0.1967    0.3719 N.3       1 <0>        -0.9900
      8 H4         -4.0872    0.4830   -0.2576 H         1 <0>         0.3600
      9 H5         -4.1824   -0.1230    1.2446 H         1 <0>         0.3600
     10 C1         -1.4206   -0.0524   -0.6371 C.3       1 <0>         0.4240
     11 H6         -1.7367    0.6269   -1.4383 H         1 <0>         0.0000
     12 C2          0.0607    0.1312   -0.3872 C.ar      1 <0>        -0.1440
     13 C3         -2.2597    0.1956    0.6310 C.3       1 <0>         0.2700
     14 H7         -2.2086    1.2423    0.9488 H         1 <0>         0.0000
     15 H8         -1.8888   -0.4257    1.4548 H         1 <0>         0.0000
     16 C4          0.9143   -0.9668   -0.1773 C.ar      1 <0>        -0.1500
     17 H9          0.5089   -1.9745   -0.2080 H         1 <0>         0.1500
     18 C5          0.5998    1.4326   -0.3424 C.ar      1 <0>        -0.1500
     19 H10        -0.0409    2.2972   -0.5017 H         1 <0>         0.1500
     20 C6          2.2679   -0.7529    0.0625 C.ar      1 <0>         0.0820
     21 C7          1.9591    1.6367   -0.0977 C.ar      1 <0>        -0.1500
     22 H11         2.3701    2.6411   -0.0653 H         1 <0>         0.1500
     23 C8          2.7824    0.5388    0.1021 C.ar      1 <0>         0.0820
@<TRIPOS>BOND
     1    1    2 1
     2    1   10 1
     3    3    4 1
     4    3   20 1
     5    5    6 1
     6    5   23 1
     7    7    8 1
     8    7    9 1
     9    7   13 1
    10   10   11 1
    11   10   12 1
    12   10   13 1
    13   12   16 ar
    14   12   18 ar
    15   13   14 1
    16   13   15 1
    17   16   17 1
    18   16   20 ar
    19   18   19 1
    20   18   21 ar
    21   20   23 ar
    22   21   22 1
    23   21   23 ar
