@<TRIPOS>MOLECULE
DB00614
   23    24     0     0     0
SMALL
USER_CHARGES

@<TRIPOS>ATOM
      1 O1          3.9184   -1.3350    0.2223 O.3       1 <0>        -0.4300
      2 O2         -2.5355   -0.8461   -0.0767 O.3       1 <0>        -0.2800
      3 O3          1.9106   -2.3571    0.5288 O.2       1 <0>        -0.5700
      4 O4         -5.9498   -0.2586   -0.0900 O.2       1 <0>        -0.5200
      5 O5         -4.7965   -2.1305   -0.2333 O.2       1 <0>        -0.5200
      6 N1          2.0832   -0.0453    0.1236 N.am      1 <0>        -0.2980
      7 N2          0.8057    0.4228    0.0887 N.2       1 <0>        -0.5120
      8 N3         -4.8942   -0.9022   -0.1302 N.pl3     1 <0>         0.9600
      9 C1          3.1720    0.8691    0.0152 C.3       1 <0>         0.3000
     10 H1          3.0175    1.5945   -0.7894 H         1 <0>         0.0000
     11 H2          3.2757    1.3944    0.9697 H         1 <0>         0.0000
     12 C2          4.3409   -0.0466   -0.2407 C.3       1 <0>         0.2800
     13 H3          5.2403    0.2694    0.2952 H         1 <0>         0.0000
     14 H4          4.5755   -0.1269   -1.3082 H         1 <0>         0.0000
     15 C3          2.5477   -1.3387    0.3055 C.2       1 <0>         0.7800
     16 C4         -1.5280    0.0748    0.0144 C.2       1 <0>         0.0550
     17 C5         -0.1784   -0.4119    0.0156 C.2       1 <0>         0.4750
     18 H5         -0.0684   -1.5036   -0.0643 H         1 <0>         0.0600
     19 C6         -2.0610    1.3500    0.0921 C.2       1 <0>        -0.1500
     20 H6         -1.4923    2.2668    0.1721 H         1 <0>         0.1500
     21 C7         -3.6940   -0.1410   -0.0512 C.2       1 <0>         0.2200
     22 C8         -3.4710    1.2100    0.0504 C.2       1 <0>        -0.1500
     23 H7         -4.2182    1.9916    0.0904 H         1 <0>         0.1500
@<TRIPOS>BOND
     1    1   12 1
     2    1   15 1
     3    2   16 1
     4    2   21 1
     5    3   15 2
     6    4    8 2
     7    5    8 2
     8    6    7 1
     9    6    9 1
    10    6   15 am
    11    7   17 2
    12    8   21 1
    13    9   10 1
    14    9   11 1
    15    9   12 1
    16   12   13 1
    17   12   14 1
    18   16   17 1
    19   16   19 2
    20   17   18 1
    21   19   20 1
    22   19   22 1
    23   21   22 2
    24   22   23 1
