@<TRIPOS>MOLECULE
DB00819
   19    19     0     0     0
SMALL
USER_CHARGES

@<TRIPOS>ATOM
      1 S1         -3.4864   -0.3736   -0.2441 S.o2      1 <0>         1.5000
      2 S2         -0.7399    0.7923   -0.2356 S.3       1 <0>        -0.0800
      3 O1         -3.7602   -0.2707   -1.6618 O.2       1 <0>        -0.6500
      4 O2         -4.0642   -1.4245    0.5670 O.2       1 <0>        -0.6500
      5 O3          3.0424   -1.6581    0.2426 O.2       1 <0>        -0.5700
      6 N1          1.8038    0.2925   -0.0622 N.am      1 <0>        -0.4940
      7 H1          1.8367    1.2966   -0.1783 H         1 <0>         0.3700
      8 N2         -1.1501   -1.7242    0.0309 N.2       1 <0>        -0.3380
      9 N3         -4.0385    1.0801    0.4406 N.pl3     1 <0>        -0.9780
     10 H2         -4.4881    1.6684   -0.2667 H         1 <0>         0.4200
     11 H3         -4.6573    0.8937    1.2353 H         1 <0>         0.4200
     12 N4          0.2254   -1.5581    0.0789 N.2       1 <0>        -0.3380
     13 C1         -1.7542   -0.5686   -0.1234 C.2       1 <0>         0.3160
     14 C2          0.5666   -0.2968   -0.0504 C.2       1 <0>         0.4420
     15 C3          2.9594   -0.4461    0.0773 C.2       1 <0>         0.5690
     16 C4          4.1954    0.4182    0.0430 C.3       1 <0>         0.0610
     17 H4          4.0771    1.2417   -0.6669 H         1 <0>         0.0000
     18 H5          5.0536   -0.1848   -0.2677 H         1 <0>         0.0000
     19 H6          4.3785    0.8221    1.0415 H         1 <0>         0.0000
@<TRIPOS>BOND
     1    1    3 2
     2    1    4 2
     3    1    9 1
     4    1   13 1
     5    2   13 1
     6    2   14 1
     7    5   15 2
     8    6    7 1
     9    6   14 1
    10    6   15 am
    11    8   12 1
    12    8   13 2
    13    9   10 1
    14    9   11 1
    15   12   14 2
    16   15   16 1
    17   16   17 1
    18   16   18 1
    19   16   19 1
