@<TRIPOS>MOLECULE
DB00230
   28    27     0     0     0
SMALL
USER_CHARGES

@<TRIPOS>ATOM
      1 O1         -2.3643   -3.1167    0.5961 O.co2     1 <0>        -0.9000
      2 O2         -3.1503   -1.1464   -0.2727 O.co2     1 <0>        -0.9000
      3 N1         -2.9028    1.0738   -0.5075 N.4       1 <0>        -0.8530
      4 C1         -0.6388    0.1579   -0.0368 C.3       1 <0>         0.0000
      5 C2          0.7513    0.6745    0.4152 C.3       1 <0>         0.0000
      6 C3          1.9620   -0.2305    0.1110 C.3       1 <0>         0.0000
      7 C4         -0.9621   -1.2077    0.6144 C.3       1 <0>        -0.1060
      8 C5         -1.6807    1.2499    0.3000 C.3       1 <0>         0.5030
      9 C6          3.2448    0.4422    0.6123 C.3       1 <0>         0.0000
     10 C7          2.0961   -0.5523   -1.3778 C.3       1 <0>         0.0000
     11 C8         -2.2853   -1.9044    0.2747 C.2       1 <0>         0.9060
     12 H1         -3.7140    1.5967   -0.1747 H         1 <0>         0.4500
     13 H2         -3.1901    0.0257   -0.4376 H         1 <0>         0.4500
     14 H3         -2.7652    1.2173   -1.5099 H         1 <0>         0.4500
     15 H4         -0.6249    0.0292   -1.1263 H         1 <0>         0.0000
     16 H5          0.9265    1.6515   -0.0573 H         1 <0>         0.0000
     17 H6          0.7197    0.8627    1.4977 H         1 <0>         0.0000
     18 H7          1.8596   -1.1736    0.6612 H         1 <0>         0.0000
     19 H8         -0.9314   -1.1026    1.7065 H         1 <0>         0.0000
     20 H9         -0.1788   -1.9263    0.3438 H         1 <0>         0.0000
     21 H10        -1.3158    2.2552    0.0699 H         1 <0>         0.0000
     22 H11        -1.9800    1.2114    1.3533 H         1 <0>         0.0000
     23 H12         3.4274    1.3887    0.0921 H         1 <0>         0.0000
     24 H13         4.1126   -0.2059    0.4497 H         1 <0>         0.0000
     25 H14         3.1816    0.6502    1.6850 H         1 <0>         0.0000
     26 H15         2.1428    0.3619   -1.9791 H         1 <0>         0.0000
     27 H16         1.2531   -1.1525   -1.7334 H         1 <0>         0.0000
     28 H17         3.0071   -1.1300   -1.5698 H         1 <0>         0.0000
@<TRIPOS>BOND
     1    1   11 2
     2    2   11 1
     3    3    8 1
     4    3   12 1
     5    3   13 1
     6    3   14 1
     7    4    5 1
     8    4    7 1
     9    4    8 1
    10    4   15 1
    11    5    6 1
    12    5   16 1
    13    5   17 1
    14    6    9 1
    15    6   10 1
    16    6   18 1
    17    7   11 1
    18    7   19 1
    19    7   20 1
    20    8   21 1
    21    8   22 1
    22    9   23 1
    23    9   24 1
    24    9   25 1
    25   10   26 1
    26   10   27 1
    27   10   28 1
