@<TRIPOS>MOLECULE
DB00649
   28    29     0     0     0
SMALL
USER_CHARGES

@<TRIPOS>ATOM
      1 O1          1.3918    0.4943   -1.1293 O.3       1 <0>        -0.5600
      2 O2          4.3768   -1.2006    0.1843 O.3       1 <0>        -0.6800
      3 H1          4.5820   -2.1513    0.2142 H         1 <0>         0.4000
      4 O3         -1.6626    3.0932   -0.3799 O.2       1 <0>        -0.5700
      5 O4         -4.5909   -0.3283    0.1361 O.2       1 <0>        -0.5700
      6 N1         -0.8013    0.9416   -0.2760 N.am      1 <0>        -0.4690
      7 N2         -3.0949    1.3641   -0.1287 N.am      1 <0>        -0.4900
      8 H2         -3.8527    2.0305   -0.1290 H         1 <0>         0.3700
      9 C1          0.5598    1.4420   -0.4297 C.3       1 <0>         0.7180
     10 H3          0.5675    2.3841   -0.9907 H         1 <0>         0.0000
     11 C2          2.6483    0.3916   -0.4205 C.3       1 <0>         0.4180
     12 H4          3.4064    0.9663   -0.9653 H         1 <0>         0.0000
     13 C3          1.2041    1.6212    0.8997 C.2       1 <0>        -0.2880
     14 H5          0.7785    2.1828    1.7170 H         1 <0>         0.1500
     15 C4          2.3952    1.0238    0.9055 C.2       1 <0>        -0.2880
     16 H6          3.0973    1.0200    1.7263 H         1 <0>         0.1500
     17 C5          3.0553   -1.0781   -0.3304 C.3       1 <0>         0.2800
     18 H7          3.0260   -1.5372   -1.3248 H         1 <0>         0.0000
     19 H8          2.3693   -1.6424    0.3112 H         1 <0>         0.0000
     20 C6         -1.0579   -0.4093   -0.1222 C.2       1 <0>        -0.0410
     21 H9         -0.1954   -1.0687   -0.1240 H         1 <0>         0.1500
     22 C7         -1.8276    1.8792   -0.2728 C.2       1 <0>         0.6900
     23 C8         -2.2933   -0.9028    0.0229 C.2       1 <0>        -0.1240
     24 C9         -3.4281    0.0436    0.0166 C.2       1 <0>         0.6160
     25 C10        -2.6014   -2.3542    0.1891 C.3       1 <0>         0.1380
     26 H10        -3.1010   -2.5338    1.1469 H         1 <0>         0.0000
     27 H11        -1.6949   -2.9682    0.1685 H         1 <0>         0.0000
     28 H12        -3.2564   -2.7034   -0.6148 H         1 <0>         0.0000
@<TRIPOS>BOND
     1    1    9 1
     2    1   11 1
     3    2    3 1
     4    2   17 1
     5    4   22 2
     6    5   24 2
     7    6    9 1
     8    6   20 1
     9    6   22 am
    10    7    8 1
    11    7   22 am
    12    7   24 am
    13    9   10 1
    14    9   13 1
    15   11   12 1
    16   11   15 1
    17   11   17 1
    18   13   14 1
    19   13   15 2
    20   15   16 1
    21   17   18 1
    22   17   19 1
    23   20   21 1
    24   20   23 2
    25   23   24 1
    26   23   25 1
    27   25   26 1
    28   25   27 1
    29   25   28 1
