@<TRIPOS>MOLECULE
DB00851
   23    23     0     0     0
SMALL
USER_CHARGES

@<TRIPOS>ATOM
      1 C1         -2.7164    2.2146   -0.0034 C.2       1 <0>         0.0370
      2 H1         -3.1069    3.2230   -0.0057 H         1 <0>         0.1500
      3 N1         -1.3826    1.9430   -0.0027 N.pl3     1 <0>         0.0330
      4 H2         -0.6286    2.6144   -0.0036 H         1 <0>         0.2700
      5 N2         -3.4272    1.1140   -0.0014 N.2       1 <0>        -0.5650
      6 C2         -2.5099    0.0728    0.0016 C.2       1 <0>         0.1410
      7 C3         -2.9301   -1.3266    0.0052 C.2       1 <0>         0.7160
      8 C4         -1.2141    0.5765    0.0004 C.2       1 <0>        -0.0260
      9 N3          0.0075   -0.0177    0.0047 N.2       1 <0>        -0.1260
     10 N4          0.9887    0.7480   -0.0414 N.2       1 <0>        -0.0620
     11 C5          3.3792    0.9361    0.0118 C.3       1 <0>         0.3000
     12 H3          3.9964    0.7197   -0.8648 H         1 <0>         0.0000
     13 H4          3.9360    0.7108    0.9253 H         1 <0>         0.0000
     14 H5          3.1063    1.9955    0.0069 H         1 <0>         0.0000
     15 N5          2.1922    0.1089   -0.0312 N.pl3     1 <0>        -0.5380
     16 C6          2.3338   -1.3348   -0.0121 C.3       1 <0>         0.3000
     17 H6          3.3325   -1.6108   -0.3637 H         1 <0>         0.0000
     18 H7          1.5993   -1.8022   -0.6738 H         1 <0>         0.0000
     19 H8          2.2008   -1.6876    1.0140 H         1 <0>         0.0000
     20 N6         -1.9252   -2.2618    0.0092 N.am      1 <0>        -0.8000
     21 H9         -0.9439   -2.0120    0.0091 H         1 <0>         0.3700
     22 H10        -2.1825   -3.2398    0.0109 H         1 <0>         0.3700
     23 O1         -4.1054   -1.6840    0.0048 O.2       1 <0>        -0.5700
@<TRIPOS>BOND
     1    1    2 1
     2    1    3 1
     3    1    5 2
     4    3    4 1
     5    3    8 1
     6    5    6 1
     7    6    7 1
     8    6    8 2
     9    7   20 am
    10    7   23 2
    11    8    9 1
    12    9   10 2
    13   10   15 1
    14   11   12 1
    15   11   13 1
    16   11   14 1
    17   11   15 1
    18   15   16 1
    19   16   17 1
    20   16   18 1
    21   16   19 1
    22   20   21 1
    23   20   22 1
