@<TRIPOS>MOLECULE
DB00167
   22    21     0     0     0
SMALL
USER_CHARGES

@<TRIPOS>ATOM
      1 O1          2.7631    0.0405   -1.1561 O.3       1 <0>        -0.6500
      2 H1          3.5841   -0.4704   -1.3147 H         1 <0>         0.5000
      3 O2          3.0520   -1.0792    0.7630 O.2       1 <0>        -0.5700
      4 N1          1.3188    1.8820    0.3170 N.3       1 <0>        -0.9900
      5 H2          0.4956    2.4067    0.6005 H         1 <0>         0.3600
      6 H3          1.4317    2.0204   -0.6894 H         1 <0>         0.3600
      7 C1         -0.1214   -0.1608   -0.1286 C.3       1 <0>         0.0000
      8 H4          0.0178   -0.0975   -1.2172 H         1 <0>         0.0000
      9 C2          1.1319    0.4410    0.5708 C.3       1 <0>         0.3310
     10 H5          1.0548    0.3061    1.6565 H         1 <0>         0.0000
     11 C3         -1.4121    0.6143    0.2306 C.3       1 <0>         0.0000
     12 H6         -1.5456    0.6339    1.3188 H         1 <0>         0.0000
     13 H7         -1.3194    1.6549   -0.0987 H         1 <0>         0.0000
     14 C4         -0.2627   -1.6500    0.2289 C.3       1 <0>         0.0000
     15 H8         -0.4574   -1.7814    1.2981 H         1 <0>         0.0000
     16 H9          0.6415   -2.2138   -0.0225 H         1 <0>         0.0000
     17 H10        -1.0792   -2.1199   -0.3287 H         1 <0>         0.0000
     18 C5         -2.6770    0.0609   -0.4142 C.3       1 <0>         0.0000
     19 H11        -2.9543   -0.9089    0.0076 H         1 <0>         0.0000
     20 H12        -2.5525   -0.0487   -1.4962 H         1 <0>         0.0000
     21 H13        -3.5147    0.7434   -0.2374 H         1 <0>         0.0000
     22 C6          2.4050   -0.2735    0.1118 C.2       1 <0>         0.6590
@<TRIPOS>BOND
     1    1    2 1
     2    1   22 1
     3    3   22 2
     4    4    5 1
     5    4    6 1
     6    4    9 1
     7    7    8 1
     8    7    9 1
     9    7   11 1
    10    7   14 1
    11    9   10 1
    12    9   22 1
    13   11   12 1
    14   11   13 1
    15   11   18 1
    16   14   15 1
    17   14   16 1
    18   14   17 1
    19   18   19 1
    20   18   20 1
    21   18   21 1
