@<TRIPOS>MOLECULE
DB00516
   19    16     0     0     0
SMALL
USER_CHARGES

@<TRIPOS>ATOM
      1 Si1         2.4067   -0.6293    0.9748 Si        1 <0>         1.5620
      2 Al1        -1.1642   -1.3700   -0.0773 Al        1 <0>         1.2100
      3 H1         -0.7630   -1.4783    1.5871 H         1 <0>        -0.1480
      4 H2          0.1050   -1.2138   -1.2219 H         1 <0>        -0.1480
      5 Al2        -1.2649    1.5280    0.0786 Al        1 <0>         1.2100
      6 H3          0.0019    1.6336   -1.0738 H         1 <0>        -0.1480
      7 H4         -0.8345    1.5102    1.7396 H         1 <0>        -0.1480
      8 O1         -2.3401    0.0556   -0.3086 O.3       1 <0>        -0.9150
      9 O2         -2.1781   -2.8560   -0.5188 O.3       1 <0>        -0.5920
     10 H5         -2.8261   -2.4508   -1.1474 H         1 <0>         0.5670
     11 H6         -2.6218   -3.0718    0.3381 H         1 <0>         0.5670
     12 O3         -2.4003    2.9706   -0.1843 O.3       1 <0>        -0.5920
     13 H7         -3.0043    2.8989    0.5948 H         1 <0>         0.5670
     14 H8         -2.8789    2.6895   -1.0044 H         1 <0>         0.5670
     15 O4          1.3548    0.3400    0.8290 O.2       1 <0>        -0.7810
     16 O5          1.7833   -1.9095    0.7999 O.2       1 <0>        -0.7810
     17 O6          5.1623    0.3541   -0.3448 O.3       1 <0>        -0.8600
     18 H9          5.7414    1.0774   -0.0441 H         1 <0>         0.4300
     19 H10         5.7208   -0.0783   -1.0165 H         1 <0>         0.4300
@<TRIPOS>BOND
     1    1   15 2
     2    1   16 2
     3    2    3 1
     4    2    4 1
     5    2    8 1
     6    2    9 1
     7    5    6 1
     8    5    7 1
     9    5    8 1
    10    5   12 1
    11    9   10 1
    12    9   11 1
    13   12   13 1
    14   12   14 1
    15   17   18 1
    16   17   19 1
