@<TRIPOS>MOLECULE
DB00534
   22    21     0     0     0
SMALL
USER_CHARGES

@<TRIPOS>ATOM
      1 Hg1        -0.8864    2.1674   -0.4021 Hg        1 <0>         0.4280
      2 Cl1        -0.5756    2.5941    1.8104 Cl        1 <0>        -0.2900
      3 O1          2.1524   -0.8437   -0.3894 O.3       1 <0>        -0.5600
      4 O2         -2.4766    0.7216   -1.2388 O.2       1 <0>        -0.5700
      5 N1         -1.4614   -0.9219    0.0057 N.am      1 <0>        -0.7300
      6 H1         -1.5672   -1.5284    0.8068 H         1 <0>         0.3700
      7 N2         -3.5804   -0.2528    0.4760 N.am      1 <0>        -0.8000
      8 H2         -4.3904    0.3281    0.3044 H         1 <0>         0.3700
      9 H3         -3.6199   -0.9174    1.2336 H         1 <0>         0.3700
     10 C1          0.9213   -0.1744   -0.0789 C.3       1 <0>         0.2800
     11 H4          0.7735   -0.1736    1.0074 H         1 <0>         0.0000
     12 C2         -0.2118   -0.9846   -0.7336 C.3       1 <0>         0.3000
     13 H5          0.0600   -2.0465   -0.7690 H         1 <0>         0.0000
     14 H6         -0.3766   -0.6662   -1.7703 H         1 <0>         0.0000
     15 C3          0.9563    1.2573   -0.6067 C.3       1 <0>        -0.1370
     16 H7          1.2392    1.2695   -1.6653 H         1 <0>         0.0000
     17 H8          1.7062    1.8560   -0.0814 H         1 <0>         0.0000
     18 C4         -2.4971   -0.1002   -0.3302 C.2       1 <0>         0.6900
     19 C5          3.2354   -0.4601    0.4470 C.3       1 <0>         0.2800
     20 H9          4.0940   -1.0920    0.2027 H         1 <0>         0.0000
     21 H10         2.9855   -0.6120    1.5008 H         1 <0>         0.0000
     22 H11         3.5197    0.5800    0.2709 H         1 <0>         0.0000
@<TRIPOS>BOND
     1    1    2 1
     2    1   15 1
     3    3   10 1
     4    3   19 1
     5    4   18 2
     6    5    6 1
     7    5   12 1
     8    5   18 am
     9    7    8 1
    10    7    9 1
    11    7   18 am
    12   10   11 1
    13   10   12 1
    14   10   15 1
    15   12   13 1
    16   12   14 1
    17   15   16 1
    18   15   17 1
    19   19   20 1
    20   19   21 1
    21   19   22 1
