@<TRIPOS>MOLECULE
DB00555
   23    24     0     0     0
SMALL
USER_CHARGES

@<TRIPOS>ATOM
      1 Cl1        -0.9162   -1.9749   -1.8133 Cl        1 <0>        -0.1770
      2 Cl2        -4.1180   -1.8104   -1.6357 Cl        1 <0>        -0.1770
      3 N1          1.1132    1.1332   -1.0190 N.ar      1 <0>        -0.3100
      4 N2          2.6937   -0.5529    0.4905 N.ar      1 <0>        -0.6200
      5 N3          0.8454   -1.5647    1.4310 N.pl3     1 <0>        -0.9000
      6 H1         -0.1411   -1.7161    1.5722 H         1 <0>         0.4000
      7 H2          1.5245   -2.1163    1.9375 H         1 <0>         0.4000
      8 N4          2.4690    1.2019   -1.0835 N.ar      1 <0>        -0.3100
      9 N5          4.5827    0.4436   -0.4147 N.pl3     1 <0>        -0.9000
     10 H3          5.0007    1.1238   -1.0266 H         1 <0>         0.4000
     11 H4          5.1233   -0.1913    0.1501 H         1 <0>         0.4000
     12 C1         -0.9190    0.2180   -0.1863 C.ar      1 <0>         0.0000
     13 C2          0.5464    0.2165   -0.2077 C.ar      1 <0>         0.3100
     14 C3         -1.6975   -0.7339   -0.8788 C.ar      1 <0>         0.1770
     15 C4         -1.5813    1.2237    0.5443 C.ar      1 <0>        -0.1500
     16 H5         -1.0044    1.9803    1.0788 H         1 <0>         0.1500
     17 C5          1.3510   -0.6243    0.5561 C.ar      1 <0>         0.4100
     18 C6         -3.1005   -0.6738   -0.8191 C.ar      1 <0>         0.1770
     19 C7         -2.9732    1.2788    0.6005 C.ar      1 <0>        -0.1500
     20 H6         -3.4659    2.0633    1.1707 H         1 <0>         0.1500
     21 C8         -3.7308    0.3296   -0.0792 C.ar      1 <0>        -0.1500
     22 H7         -4.8166    0.3824   -0.0310 H         1 <0>         0.1500
     23 C9          3.2148    0.3637   -0.3369 C.ar      1 <0>         0.7200
@<TRIPOS>BOND
     1    1   14 1
     2    2   18 1
     3    3    8 ar
     4    3   13 ar
     5    4   17 ar
     6    4   23 ar
     7    5    6 1
     8    5    7 1
     9    5   17 1
    10    8   23 ar
    11    9   10 1
    12    9   11 1
    13    9   23 1
    14   12   13 1
    15   12   14 ar
    16   12   15 ar
    17   13   17 ar
    18   14   18 ar
    19   15   16 1
    20   15   19 ar
    21   18   21 ar
    22   19   20 1
    23   19   21 ar
    24   21   22 1
