@<TRIPOS>MOLECULE
DB00828
   15    15     0     0     0
SMALL
USER_CHARGES

@<TRIPOS>ATOM
      1 P1         -1.3383    0.5583    0.5043 P.3       1 <0>         1.3490
      2 O1          0.1893   -0.7451   -1.2789 O.3       1 <0>        -0.2960
      3 O2         -2.8710    0.1295    0.3212 O.3       1 <0>        -0.7710
      4 H1         -3.0636   -0.6409   -0.2452 H         1 <0>         0.5000
      5 O3         -1.0688    1.6083   -0.6761 O.3       1 <0>        -0.7710
      6 H2         -0.5914    1.2312   -1.4448 H         1 <0>         0.5000
      7 O4         -0.8336    0.8501    1.8762 O.2       1 <0>        -0.7000
      8 C1         -0.4315   -0.8941    0.0068 C.3       1 <0>        -0.0590
      9 H3         -0.8922   -1.8319    0.2782 H         1 <0>         0.1000
     10 C2          1.0574   -0.8467   -0.1397 C.3       1 <0>        -0.0470
     11 H4          1.6103   -1.7677   -0.0008 H         1 <0>         0.1000
     12 C3          1.8846    0.3564    0.1417 C.3       1 <0>         0.0950
     13 H5          1.4246    1.2870   -0.1991 H         1 <0>         0.0000
     14 H6          2.8526    0.2655   -0.3611 H         1 <0>         0.0000
     15 H7          2.0718    0.4400    1.2171 H         1 <0>         0.0000
@<TRIPOS>BOND
     1    1    3 1
     2    1    5 1
     3    1    7 2
     4    1    8 1
     5    2    8 1
     6    2   10 1
     7    3    4 1
     8    5    6 1
     9    8    9 1
    10    8   10 1
    11   10   11 1
    12   10   12 1
    13   12   13 1
    14   12   14 1
    15   12   15 1
