@<TRIPOS>MOLECULE
DB00763
   13    13     0     0     0
SMALL
USER_CHARGES

@<TRIPOS>ATOM
      1 S1          0.0432    2.7289    0.0005 S.2       1 <0>        -0.3800
      2 N1          0.4456   -0.0277    0.0000 N.pl3     1 <0>        -0.4690
      3 N2         -1.6898    0.6286   -0.0003 N.pl3     1 <0>        -0.5390
      4 H1         -2.5240    1.1998   -0.0004 H         1 <0>         0.3700
      5 C1         -0.3725    1.1274   -0.0001 C.2       1 <0>         0.5000
      6 C2         -0.3739   -1.1397   -0.0002 C.2       1 <0>        -0.0410
      7 H2          0.0195   -2.1451   -0.0000 H         1 <0>         0.1500
      8 C3          1.8893   -0.0740   -0.0001 C.3       1 <0>         0.3000
      9 H3          2.2445   -1.1080   -0.0072 H         1 <0>         0.0000
     10 H4          2.2608    0.4379    0.8922 H         1 <0>         0.0000
     11 H5          2.2617    0.4508   -0.8848 H         1 <0>         0.0000
     12 C4         -1.6526   -0.7418   -0.0004 C.2       1 <0>        -0.0410
     13 H6         -2.5517   -1.3371    0.0007 H         1 <0>         0.1500
@<TRIPOS>BOND
     1    1    5 2
     2    2    5 1
     3    2    6 1
     4    2    8 1
     5    3    4 1
     6    3    5 1
     7    3   12 1
     8    6    7 1
     9    6   12 2
    10    8    9 1
    11    8   10 1
    12    8   11 1
    13   12   13 1
