@<TRIPOS>MOLECULE
DB00352
   16    17     0     0     0
SMALL
USER_CHARGES

@<TRIPOS>ATOM
      1 S1          0.7571   -3.2032   -0.0015 S.2       1 <0>        -0.3800
      2 N1         -0.8618    0.9856   -0.0006 N.pl3     1 <0>        -0.5330
      3 H1         -1.2435    1.9187   -0.0014 H         1 <0>         0.4000
      4 N2          2.2962   -0.3574    0.0003 N.pl3     1 <0>         0.0330
      5 H2          2.9917   -1.0936    0.0002 H         1 <0>         0.2700
      6 N3          1.4216    1.6984   -0.0002 N.2       1 <0>        -0.5650
      7 N4         -1.2705   -1.3803    0.0002 N.2       1 <0>        -0.6610
      8 N5         -2.9856    0.1507    0.0001 N.pl3     1 <0>        -0.8500
      9 H3         -3.6362   -0.6257    0.0035 H         1 <0>         0.4000
     10 H4         -3.3608    1.0866   -0.0016 H         1 <0>         0.4000
     11 C1          0.9371   -0.5227    0.0002 C.2       1 <0>        -0.2370
     12 C2          0.4513    0.7541   -0.0001 C.2       1 <0>         0.3100
     13 C3          0.0837   -1.6726   -0.0007 C.2       1 <0>         0.6760
     14 C4         -1.6591   -0.1327   -0.0001 C.2       1 <0>         0.5500
     15 C5          2.5381    0.9949    0.0005 C.2       1 <0>         0.0370
     16 H5          3.5407    1.3996    0.0012 H         1 <0>         0.1500
@<TRIPOS>BOND
     1    1   13 2
     2    2    3 1
     3    2   12 1
     4    2   14 1
     5    4    5 1
     6    4   11 1
     7    4   15 1
     8    6   12 1
     9    6   15 2
    10    7   13 1
    11    7   14 2
    12    8    9 1
    13    8   10 1
    14    8   14 1
    15   11   12 2
    16   11   13 1
    17   15   16 1
