@<TRIPOS>MOLECULE
DB00987
   30    31     0     0     0
SMALL
USER_CHARGES

@<TRIPOS>ATOM
      1 O1          1.2565    0.3198    1.3038 O.3       1 <0>        -0.5600
      2 O2          0.3015   -2.5754   -0.7176 O.3       1 <0>        -0.6800
      3 H1         -0.4313   -2.9272   -0.1593 H         1 <0>         0.4000
      4 O3          2.9320   -1.3413   -1.4284 O.3       1 <0>        -0.6800
      5 H2          2.5508   -2.1099   -1.8954 H         1 <0>         0.4000
      6 O4          3.2097    2.4430    0.7938 O.3       1 <0>        -0.6800
      7 H3          3.3857    3.3125    0.3965 H         1 <0>         0.4000
      8 O5         -1.7598   -2.4485    0.7861 O.2       1 <0>        -0.5700
      9 N1         -0.9626   -0.3120    0.6449 N.am      1 <0>        -0.4690
     10 N2         -3.2426   -0.8452    0.1587 N.2       1 <0>        -0.6610
     11 N3         -4.7021    0.7659   -0.5194 N.pl3     1 <0>        -0.8500
     12 H4         -5.4069    0.0419   -0.5753 H         1 <0>         0.4000
     13 H5         -4.9627    1.7124   -0.7593 H         1 <0>         0.4000
     14 C1          1.0850   -1.7244    0.1034 C.3       1 <0>         0.2800
     15 H6          1.7876   -2.3651    0.6527 H         1 <0>         0.0000
     16 C2          1.8591   -0.7307   -0.7333 C.3       1 <0>         0.2800
     17 H7          1.2053   -0.2487   -1.4700 H         1 <0>         0.0000
     18 C3          0.3547   -0.7893    1.0851 C.3       1 <0>         0.5800
     19 H8          0.2067   -1.3006    2.0446 H         1 <0>         0.0000
     20 C4          2.3326    0.2378    0.3396 C.3       1 <0>         0.2800
     21 H9          3.2090   -0.1532    0.8725 H         1 <0>         0.0000
     22 C5          2.6647    1.6149   -0.2285 C.3       1 <0>         0.2800
     23 H10         1.7675    2.1087   -0.6118 H         1 <0>         0.0000
     24 H11         3.4040    1.5362   -1.0322 H         1 <0>         0.0000
     25 C6         -1.2000    1.0131    0.3556 C.2       1 <0>        -0.0410
     26 H12        -0.3829    1.7174    0.4650 H         1 <0>         0.1500
     27 C7         -1.9920   -1.2585    0.5503 C.2       1 <0>         0.8410
     28 C8         -2.3990    1.4344   -0.0339 C.2       1 <0>        -0.1360
     29 H13        -2.6208    2.4663   -0.2636 H         1 <0>         0.1500
     30 C9         -3.4496    0.4056   -0.1244 C.2       1 <0>         0.4860
@<TRIPOS>BOND
     1    1   18 1
     2    1   20 1
     3    2    3 1
     4    2   14 1
     5    4    5 1
     6    4   16 1
     7    6    7 1
     8    6   22 1
     9    8   27 2
    10    9   18 1
    11    9   25 1
    12    9   27 am
    13   10   27 1
    14   10   30 2
    15   11   12 1
    16   11   13 1
    17   11   30 1
    18   14   15 1
    19   14   16 1
    20   14   18 1
    21   16   17 1
    22   16   20 1
    23   18   19 1
    24   20   21 1
    25   20   22 1
    26   22   23 1
    27   22   24 1
    28   25   26 1
    29   25   28 2
    30   28   29 1
    31   28   30 1
