@<TRIPOS>MOLECULE
DB00235
   25    26     0     0     0
SMALL
USER_CHARGES

@<TRIPOS>ATOM
      1 O1          4.3446   -0.4114   -0.0015 O.2       1 <0>        -0.5700
      2 N1          2.2280   -1.2463   -0.0023 N.am      1 <0>        -0.5390
      3 N2         -3.9111    0.7322    0.0003 N.ar      1 <0>        -0.6200
      4 N3          4.1059    3.2211    0.0065 N.1       1 <0>        -0.5570
      5 C1          0.3221    0.1443    0.0001 C.2       1 <0>        -0.0280
      6 C2          0.8529   -1.1003   -0.0010 C.2       1 <0>        -0.0290
      7 C3         -1.1374    0.3380    0.0007 C.ar      1 <0>         0.0280
      8 C4          1.2256    1.2882    0.0025 C.2       1 <0>        -0.1500
      9 C5          2.5608    1.1557    0.0019 C.2       1 <0>         0.0790
     10 C6          0.0901   -2.3982   -0.0040 C.3       1 <0>         0.1380
     11 C7          3.1346   -0.2114   -0.0002 C.2       1 <0>         0.6160
     12 C8         -1.8368    0.4386    1.2043 C.ar      1 <0>        -0.1500
     13 C9         -1.8352    0.4488   -1.2029 C.ar      1 <0>        -0.1500
     14 C10        -3.2086    0.6309    1.1495 C.ar      1 <0>         0.1600
     15 C11        -3.2068    0.6404   -1.1486 C.ar      1 <0>         0.1600
     16 C12         3.4259    2.2811    0.0042 C.1       1 <0>         0.4920
     17 H1          2.6286   -2.1783   -0.0034 H         1 <0>         0.3700
     18 H2          0.7663    2.2751    0.0039 H         1 <0>         0.1500
     19 H3          0.3503   -2.9858   -0.8910 H         1 <0>         0.0000
     20 H4         -0.9951   -2.2712   -0.0054 H         1 <0>         0.0000
     21 H5          0.3479   -2.9875    0.8838 H         1 <0>         0.0000
     22 H6         -1.3331    0.3662    2.1623 H         1 <0>         0.1500
     23 H7         -1.3302    0.3858   -2.1611 H         1 <0>         0.1500
     24 H8         -3.7960    0.7131    2.0592 H         1 <0>         0.1500
     25 H9         -3.7932    0.7310   -2.0576 H         1 <0>         0.1500
@<TRIPOS>BOND
     1    1   11 2
     2    2    6 1
     3    2   11 am
     4    2   17 1
     5    3   14 ar
     6    3   15 ar
     7    4   16 3
     8    5    6 2
     9    5    7 1
    10    5    8 1
    11    6   10 1
    12    7   12 ar
    13    7   13 ar
    14    8    9 2
    15    8   18 1
    16    9   11 1
    17    9   16 1
    18   10   19 1
    19   10   20 1
    20   10   21 1
    21   12   14 ar
    22   12   22 1
    23   13   15 ar
    24   13   23 1
    25   14   24 1
    26   15   25 1
