@<TRIPOS>MOLECULE
DB00282
   21    20     0     0     0
SMALL
USER_CHARGES

@<TRIPOS>ATOM
      1 P1          0.1440    2.2188    0.1446 P.3       1 <0>         1.1000
      2 P2          1.9136   -1.6590   -0.0335 P.3       1 <0>         1.1000
      3 O1          2.3879    0.9216   -0.0902 O.3       1 <0>        -0.6800
      4 O2         -1.3156    1.7880   -0.2411 O.2       1 <0>        -1.0330
      5 O3          0.2556    3.0519    1.4136 O.3       1 <0>        -1.0330
      6 O4          3.4213   -1.7312    0.2011 O.2       1 <0>        -1.0330
      7 O5          1.4399   -1.6452   -1.4866 O.3       1 <0>        -1.0330
      8 O6          1.0850    2.5729   -1.0123 O.3       1 <0>        -1.0330
      9 O7          1.1006   -2.5747    0.8927 O.3       1 <0>        -1.0330
     10 N1         -2.2460   -0.3368   -0.3010 N.4       1 <0>        -0.8530
     11 C1          1.3512    0.3384    0.7981 C.3       1 <0>         0.2800
     12 C2         -0.0509   -0.1616    0.3330 C.3       1 <0>         0.0000
     13 C3         -1.0909   -1.2155    0.2423 C.3       1 <0>         0.5030
     14 H1          1.9487    1.6382   -0.6682 H         1 <0>         0.4000
     15 H2         -2.3895   -0.4856   -1.2992 H         1 <0>         0.4500
     16 H3         -1.9007    0.7586   -0.2808 H         1 <0>         0.4500
     17 H4         -3.1004   -0.3570    0.2490 H         1 <0>         0.4500
     18 H5         -0.0174    0.1375   -0.7239 H         1 <0>         0.0000
     19 H6         -0.5631    0.3592    1.1587 H         1 <0>         0.0000
     20 H7         -0.9435   -2.0022   -0.4986 H         1 <0>         0.0000
     21 H8         -1.4298   -1.6163    1.2022 H         1 <0>         0.0000
@<TRIPOS>BOND
     1    1    4 2
     2    1    5 1
     3    1    8 1
     4    1   11 1
     5    2    6 2
     6    2    7 1
     7    2    9 1
     8    2   11 1
     9    3   11 1
    10    3   14 1
    11   10   13 1
    12   10   15 1
    13   10   16 1
    14   10   17 1
    15   11   12 1
    16   12   13 1
    17   12   18 1
    18   12   19 1
    19   13   20 1
    20   13   21 1
