@<TRIPOS>MOLECULE
DB00271
   28    28     0     0     0
SMALL
USER_CHARGES

@<TRIPOS>ATOM
      1 I1         -0.0007   -2.8476   -0.0012 I         1 <0>        -0.0810
      2 I2          2.8885    2.4912    1.0260 I         1 <0>        -0.0810
      3 I3         -2.8897    2.4927   -1.0230 I         1 <0>        -0.0810
      4 O1         -0.4050    4.1842    1.0600 O.co2     1 <0>        -0.9000
      5 O2          0.4074    4.1809   -1.0625 O.co2     1 <0>        -0.9000
      6 O3         -3.8355    0.3465    1.2720 O.2       1 <0>        -0.5700
      7 O4          3.8368    0.3476   -1.2700 O.2       1 <0>        -0.5700
      8 N1         -2.4073   -0.7942   -0.1670 N.am      1 <0>        -0.5470
      9 N2          2.4066   -0.7951    0.1663 N.am      1 <0>        -0.5470
     10 C1         -1.2344    0.0019   -0.1196 C.ar      1 <0>         0.1170
     11 C2          1.2334    0.0020    0.1190 C.ar      1 <0>         0.1170
     12 C3         -0.0003   -0.6792   -0.0009 C.ar      1 <0>         0.0810
     13 C4          0.0005    2.1212    0.0003 C.ar      1 <0>        -0.1790
     14 C5          1.2056    1.4083    0.2142 C.ar      1 <0>         0.0810
     15 C6         -1.2067    1.4082   -0.2134 C.ar      1 <0>         0.0810
     16 C7          0.0009    3.6189   -0.0008 C.2       1 <0>         0.9790
     17 C8         -3.6260   -0.5086    0.4182 C.2       1 <0>         0.5690
     18 C9          3.6267   -0.5084   -0.4157 C.2       1 <0>         0.5690
     19 C10        -4.7107   -1.4591   -0.0189 C.3       1 <0>         0.0610
     20 C11         4.7104   -1.4590    0.0195 C.3       1 <0>         0.0610
     21 H1         -2.3029   -1.7019   -0.6105 H         1 <0>         0.3700
     22 H2          2.3016   -1.7030    0.6089 H         1 <0>         0.3700
     23 H3         -4.6795   -2.3546    0.6064 H         1 <0>         0.0000
     24 H4         -4.5787   -1.7450   -1.0662 H         1 <0>         0.0000
     25 H5         -5.6848   -0.9732    0.0852 H         1 <0>         0.0000
     26 H6          4.6988   -2.3398   -0.6286 H         1 <0>         0.0000
     27 H7          4.5629   -1.7731    1.0575 H         1 <0>         0.0000
     28 H8          5.6821   -0.9620   -0.0552 H         1 <0>         0.0000
@<TRIPOS>BOND
     1    1   12 1
     2    2   14 1
     3    3   15 1
     4    4   16 2
     5    5   16 1
     6    6   17 2
     7    7   18 2
     8    8   10 1
     9    8   17 am
    10    8   21 1
    11    9   11 1
    12    9   18 am
    13    9   22 1
    14   10   12 ar
    15   10   15 ar
    16   11   12 ar
    17   11   14 ar
    18   13   14 ar
    19   13   15 ar
    20   13   16 1
    21   17   19 1
    22   18   20 1
    23   19   23 1
    24   19   24 1
    25   19   25 1
    26   20   26 1
    27   20   27 1
    28   20   28 1
