@<TRIPOS>MOLECULE
DB00191
   26    26     0     0     0
SMALL
USER_CHARGES

@<TRIPOS>ATOM
      1 N1          2.9764    0.0927   -0.7732 N.3       1 <0>        -0.9900
      2 H1          3.1091   -0.7853   -1.2759 H         1 <0>         0.3600
      3 H2          3.7411    0.1472   -0.1000 H         1 <0>         0.3600
      4 C1          1.6816    0.0745   -0.0642 C.3       1 <0>         0.2700
      5 C2          0.5635    0.0016   -1.1405 C.3       1 <0>         0.1440
      6 H3          0.6660    0.8476   -1.8354 H         1 <0>         0.0000
      7 H4          0.7118   -0.8918   -1.7651 H         1 <0>         0.0000
      8 C3          1.6706   -1.1463    0.8688 C.3       1 <0>         0.0000
      9 H5          0.7733   -1.1643    1.4972 H         1 <0>         0.0000
     10 H6          2.5314   -1.1374    1.5487 H         1 <0>         0.0000
     11 H7          1.7055   -2.0839    0.3029 H         1 <0>         0.0000
     12 C4          1.6019    1.3638    0.7665 C.3       1 <0>         0.0000
     13 H8          0.6983    1.3880    1.3856 H         1 <0>         0.0000
     14 H9          1.5962    2.2534    0.1254 H         1 <0>         0.0000
     15 H10         2.4561    1.4538    1.4492 H         1 <0>         0.0000
     16 C5         -0.8612   -0.0178   -0.6327 C.ar      1 <0>        -0.1440
     17 C6         -1.5712    1.1794   -0.4543 C.ar      1 <0>        -0.1500
     18 H11        -1.1014    2.1337   -0.6799 H         1 <0>         0.1500
     19 C7         -1.5005   -1.2320   -0.3435 C.ar      1 <0>        -0.1500
     20 H12        -0.9767   -2.1749   -0.4810 H         1 <0>         0.1500
     21 C8         -2.8870    1.1613    0.0128 C.ar      1 <0>        -0.1500
     22 H13        -3.4258    2.0948    0.1486 H         1 <0>         0.1500
     23 C9         -2.8166   -1.2479    0.1240 C.ar      1 <0>        -0.1500
     24 H14        -3.3011   -2.1944    0.3469 H         1 <0>         0.1500
     25 C10        -3.5088   -0.0517    0.3030 C.ar      1 <0>        -0.1500
     26 H15        -4.5325   -0.0642    0.6659 H         1 <0>         0.1500
@<TRIPOS>BOND
     1    1    2 1
     2    1    3 1
     3    1    4 1
     4    4    5 1
     5    4    8 1
     6    4   12 1
     7    5    6 1
     8    5    7 1
     9    5   16 1
    10    8    9 1
    11    8   10 1
    12    8   11 1
    13   12   13 1
    14   12   14 1
    15   12   15 1
    16   16   17 ar
    17   16   19 ar
    18   17   18 1
    19   17   21 ar
    20   19   20 1
    21   19   23 ar
    22   21   22 1
    23   21   25 ar
    24   23   24 1
    25   23   25 ar
    26   25   26 1
