@<TRIPOS>MOLECULE
DB00832
   25    26     0     0     0
SMALL
USER_CHARGES

@<TRIPOS>ATOM
      1 O1          1.1648    0.1366   -2.2117 O.2       1 <0>        -0.5700
      2 O2          2.9796    0.0442    2.0006 O.2       1 <0>        -0.5700
      3 N1          2.3269   -0.1000   -0.2219 N.am      1 <0>        -0.4200
      4 C1          0.3019    1.0705   -0.1403 C.3       1 <0>         0.2040
      5 H1          0.1842    2.0777   -0.5594 H         1 <0>         0.0000
      6 C2          1.0047    1.1780    1.2141 C.3       1 <0>         0.0610
      7 H2          0.3946    0.8527    2.0611 H         1 <0>         0.0000
      8 H3          1.3426    2.2054    1.3937 H         1 <0>         0.0000
      9 C3          1.2918    0.3289   -1.0107 C.2       1 <0>         0.5690
     10 C4         -1.0422    0.3758   -0.0749 C.ar      1 <0>        -0.1440
     11 C5          2.2195    0.3049    1.0796 C.2       1 <0>         0.5690
     12 C6          3.4140   -0.9037   -0.7329 C.3       1 <0>         0.3000
     13 H4          4.1401   -1.1336    0.0511 H         1 <0>         0.0000
     14 H5          3.9031   -0.3573   -1.5454 H         1 <0>         0.0000
     15 H6          3.0026   -1.8304   -1.1443 H         1 <0>         0.0000
     16 C7         -2.1903    1.0463   -0.5242 C.ar      1 <0>        -0.1500
     17 H7         -2.1223    2.0579   -0.9196 H         1 <0>         0.1500
     18 C8         -1.1794   -0.9315    0.4202 C.ar      1 <0>        -0.1500
     19 H8         -0.3145   -1.4889    0.7726 H         1 <0>         0.1500
     20 C9         -3.4422    0.4292   -0.4754 C.ar      1 <0>        -0.1500
     21 H9         -4.3230    0.9591   -0.8279 H         1 <0>         0.1500
     22 C10        -2.4321   -1.5474    0.4673 C.ar      1 <0>        -0.1500
     23 H10        -2.5249   -2.5592    0.8517 H         1 <0>         0.1500
     24 C11        -3.5631   -0.8677    0.0203 C.ar      1 <0>        -0.1500
     25 H11        -4.5364   -1.3475    0.0563 H         1 <0>         0.1500
@<TRIPOS>BOND
     1    1    9 2
     2    2   11 2
     3    3    9 am
     4    3   11 am
     5    3   12 1
     6    4    5 1
     7    4    6 1
     8    4    9 1
     9    4   10 1
    10    6    7 1
    11    6    8 1
    12    6   11 1
    13   10   16 ar
    14   10   18 ar
    15   12   13 1
    16   12   14 1
    17   12   15 1
    18   16   17 1
    19   16   20 ar
    20   18   19 1
    21   18   22 ar
    22   20   21 1
    23   20   24 ar
    24   22   23 1
    25   22   24 ar
    26   24   25 1
