@<TRIPOS>MOLECULE
DB00389
   22    22     0     0     0
SMALL
USER_CHARGES

@<TRIPOS>ATOM
      1 S1         -2.1592    2.6292   -0.0101 S.2       1 <0>        -0.3800
      2 O1          1.7753    0.0036   -0.0043 O.3       1 <0>        -0.4300
      3 O2          1.0063    2.1461   -0.0022 O.2       1 <0>        -0.5700
      4 N1         -2.7304   -0.0836   -0.0016 N.pl3     1 <0>        -0.4690
      5 N2         -0.4986    0.3572   -0.0054 N.am      1 <0>        -0.2290
      6 C1         -1.8024    1.0031   -0.0064 C.2       1 <0>         0.5000
      7 C2         -0.7218   -1.0134   -0.0032 C.2       1 <0>        -0.0410
      8 H1          0.0860   -1.7308   -0.0024 H         1 <0>         0.1500
      9 C3         -2.0326   -1.2693   -0.0005 C.2       1 <0>        -0.0410
     10 H2         -2.5308   -2.2276    0.0022 H         1 <0>         0.1500
     11 C4         -4.1794   -0.0327    0.0030 C.3       1 <0>         0.3000
     12 H3         -4.5476    0.9935   -0.0249 H         1 <0>         0.0000
     13 H4         -4.5461   -0.5182    0.9124 H         1 <0>         0.0000
     14 H5         -4.5553   -0.5696   -0.8738 H         1 <0>         0.0000
     15 C5          0.7762    0.9414   -0.0050 C.2       1 <0>         0.7800
     16 C6          3.1082    0.5329    0.0094 C.3       1 <0>         0.2800
     17 H6          3.2575    1.1277    0.9170 H         1 <0>         0.0000
     18 H7          3.2679    1.1582   -0.8750 H         1 <0>         0.0000
     19 C7          4.0774   -0.6333   -0.0044 C.3       1 <0>         0.0000
     20 H8          3.9096   -1.2848    0.8596 H         1 <0>         0.0000
     21 H9          5.1125   -0.2816    0.0139 H         1 <0>         0.0000
     22 H10         3.9273   -1.2479   -0.8983 H         1 <0>         0.0000
@<TRIPOS>BOND
     1    1    6 2
     2    2   15 1
     3    2   16 1
     4    3   15 2
     5    4    6 1
     6    4    9 1
     7    4   11 1
     8    5    6 1
     9    5    7 1
    10    5   15 am
    11    7    8 1
    12    7    9 2
    13    9   10 1
    14   11   12 1
    15   11   13 1
    16   11   14 1
    17   16   17 1
    18   16   18 1
    19   16   19 1
    20   19   20 1
    21   19   21 1
    22   19   22 1
