@<TRIPOS>MOLECULE
DB00545
   26    26     0     0     0
SMALL
USER_CHARGES

@<TRIPOS>ATOM
      1 O1          0.7333    0.7187    0.2946 O.3       1 <0>        -0.2320
      2 O2          1.0081   -1.1800   -0.9899 O.2       1 <0>        -0.5700
      3 N1         -2.7548   -0.4354    0.1273 N.ar      1 <0>        -0.2100
      4 N2          2.8584   -0.1520   -0.0492 N.am      1 <0>        -0.6600
      5 C1         -0.6554    0.6838    0.1007 C.ar      1 <0>         0.0820
      6 C2         -1.4140   -0.4651    0.3089 C.ar      1 <0>         0.2110
      7 H1         -0.9733   -1.4082    0.6148 H         1 <0>         0.1500
      8 C3         -3.3783    0.7104   -0.2320 C.ar      1 <0>         0.2110
      9 H2         -4.4566    0.6729   -0.3581 H         1 <0>         0.1500
     10 C4         -1.2781    1.8733   -0.2521 C.ar      1 <0>        -0.1500
     11 H3         -0.6971    2.7820   -0.3960 H         1 <0>         0.1500
     12 C5         -2.6560    1.8844   -0.4254 C.ar      1 <0>        -0.1500
     13 H4         -3.1663    2.8007   -0.7080 H         1 <0>         0.1500
     14 C6         -3.5552   -1.6536    0.3272 C.3       1 <0>         0.4880
     15 H5         -2.8984   -2.5165    0.4653 H         1 <0>         0.0000
     16 H6         -4.1753   -1.8026   -0.5616 H         1 <0>         0.0000
     17 H7         -4.1730   -1.5018    1.2159 H         1 <0>         0.0000
     18 C7          1.5003   -0.2837   -0.3089 C.2       1 <0>         0.7800
     19 C8          3.7942   -1.1146   -0.6060 C.3       1 <0>         0.3000
     20 H8          3.2906   -1.8761   -1.2069 H         1 <0>         0.0000
     21 H9          4.3252   -1.6053    0.2151 H         1 <0>         0.0000
     22 H10         4.5124   -0.5837   -1.2388 H         1 <0>         0.0000
     23 C9          3.4311    0.9128    0.7613 C.3       1 <0>         0.3000
     24 H11         2.6763    1.5983    1.1514 H         1 <0>         0.0000
     25 H12         4.1369    1.4792    0.1466 H         1 <0>         0.0000
     26 H13         3.9650    0.4623    1.6038 H         1 <0>         0.0000
@<TRIPOS>BOND
     1    1    5 1
     2    1   18 1
     3    2   18 2
     4    3    6 ar
     5    3    8 ar
     6    3   14 1
     7    4   18 am
     8    4   19 1
     9    4   23 1
    10    5    6 ar
    11    5   10 ar
    12    6    7 1
    13    8    9 1
    14    8   12 ar
    15   10   11 1
    16   10   12 ar
    17   12   13 1
    18   14   15 1
    19   14   16 1
    20   14   17 1
    21   19   20 1
    22   19   21 1
    23   19   22 1
    24   23   24 1
    25   23   25 1
    26   23   26 1
