@<TRIPOS>MOLECULE
DB00244
   17    17     0     0     0
SMALL
USER_CHARGES

@<TRIPOS>ATOM
      1 O1          2.4946    1.2420   -0.1406 O.3       1 <0>        -0.5320
      2 O2          1.9603   -2.5882   -0.8083 O.co2     1 <0>        -0.9000
      3 O3          2.9935   -1.4883    0.8809 O.co2     1 <0>        -0.9000
      4 N1         -2.7419   -0.6121    0.0517 N.pl3     1 <0>        -0.9000
      5 C1          0.9732   -0.6019   -0.0078 C.ar      1 <0>        -0.1790
      6 C2         -1.4371   -0.1506    0.0225 C.ar      1 <0>         0.1000
      7 C3         -0.3644   -1.0474    0.0166 C.ar      1 <0>        -0.1500
      8 C4          1.2146    0.7731   -0.0504 C.ar      1 <0>         0.0820
      9 C5         -1.1645    1.2180   -0.0020 C.ar      1 <0>        -0.1500
     10 C6          0.1530    1.6812   -0.0423 C.ar      1 <0>        -0.1500
     11 C7          2.0738   -1.6245    0.0145 C.2       1 <0>         0.9790
     12 H1          2.4932    2.2028   -0.0129 H         1 <0>         0.4500
     13 H2         -3.5195    0.0321    0.0603 H         1 <0>         0.4000
     14 H3         -2.9275   -1.6058    0.0644 H         1 <0>         0.4000
     15 H4         -0.5535   -2.1192    0.0338 H         1 <0>         0.1500
     16 H5         -1.9786    1.9368    0.0003 H         1 <0>         0.1500
     17 H6          0.3308    2.7520   -0.0806 H         1 <0>         0.1500
@<TRIPOS>BOND
     1    1    8 1
     2    1   12 1
     3    2   11 2
     4    3   11 1
     5    4    6 1
     6    4   13 1
     7    4   14 1
     8    5    7 ar
     9    5    8 ar
    10    5   11 1
    11    6    7 ar
    12    6    9 ar
    13    7   15 1
    14    8   10 ar
    15    9   10 ar
    16    9   16 1
    17   10   17 1
