@<TRIPOS>MOLECULE
DB00830
   28    29     0     0     0
SMALL
USER_CHARGES

@<TRIPOS>ATOM
      1 O1          0.9246    1.3983   -0.8650 O.3       1 <0>        -0.5600
      2 N1          2.6158   -0.7696    0.2661 N.3       1 <0>        -0.9000
      3 H1          3.1126   -0.8582    1.1532 H         1 <0>         0.3600
      4 C1          1.1644   -0.6610    0.5341 C.3       1 <0>         0.2700
      5 H2          1.0444   -0.0844    1.4609 H         1 <0>         0.0000
      6 C2          0.4152    0.0710   -0.6197 C.3       1 <0>         0.4240
      7 H3          0.5667   -0.4855   -1.5558 H         1 <0>         0.0000
      8 C3          3.1255    0.3807   -0.4902 C.3       1 <0>         0.2700
      9 H4          4.1463    0.6067   -0.1637 H         1 <0>         0.0000
     10 H5          3.1792    0.0867   -1.5451 H         1 <0>         0.0000
     11 C4          2.2421    1.6193   -0.3574 C.3       1 <0>         0.2800
     12 H6          2.6749    2.4513   -0.9226 H         1 <0>         0.0000
     13 H7          2.1654    1.9437    0.6866 H         1 <0>         0.0000
     14 C5         -1.0746    0.2101   -0.3647 C.ar      1 <0>        -0.1440
     15 C6          0.6428   -2.0786    0.7808 C.3       1 <0>         0.0000
     16 H8          0.7111   -2.6921   -0.1244 H         1 <0>         0.0000
     17 H9         -0.4018   -2.0671    1.1064 H         1 <0>         0.0000
     18 H10         1.2176   -2.5766    1.5707 H         1 <0>         0.0000
     19 C7         -1.9920   -0.5597   -1.0965 C.ar      1 <0>        -0.1500
     20 H11        -1.6455   -1.2515   -1.8617 H         1 <0>         0.1500
     21 C8         -1.5630    1.0925    0.6127 C.ar      1 <0>        -0.1500
     22 H12        -0.8734    1.7080    1.1846 H         1 <0>         0.1500
     23 C9         -3.3634   -0.4519   -0.8542 C.ar      1 <0>        -0.1500
     24 H13        -4.0648   -1.0536   -1.4260 H         1 <0>         0.1500
     25 C10        -2.9348    1.1988    0.8531 C.ar      1 <0>        -0.1500
     26 H14        -3.3008    1.8882    1.6087 H         1 <0>         0.1500
     27 C11        -3.8335    0.4252    0.1211 C.ar      1 <0>        -0.1500
     28 H15        -4.9008    0.5095    0.3081 H         1 <0>         0.1500
@<TRIPOS>BOND
     1    1    6 1
     2    1   11 1
     3    2    3 1
     4    2    4 1
     5    2    8 1
     6    4    5 1
     7    4    6 1
     8    4   15 1
     9    6    7 1
    10    6   14 1
    11    8    9 1
    12    8   10 1
    13    8   11 1
    14   11   12 1
    15   11   13 1
    16   14   19 ar
    17   14   21 ar
    18   15   16 1
    19   15   17 1
    20   15   18 1
    21   19   20 1
    22   19   23 ar
    23   21   22 1
    24   21   25 ar
    25   23   24 1
    26   23   27 ar
    27   25   26 1
    28   25   27 ar
    29   27   28 1
