@<TRIPOS>MOLECULE
DB00316
   20    20     0     0     0
SMALL
USER_CHARGES

@<TRIPOS>ATOM
      1 O1         -4.1799    0.4433    0.0046 O.3       1 <0>        -0.5320
      2 H1         -4.6383   -0.4130    0.0059 H         1 <0>         0.4500
      3 O2          2.2660    1.7568   -0.0018 O.2       1 <0>        -0.5700
      4 N1          1.3313   -0.3917   -0.0055 N.am      1 <0>        -0.5470
      5 H2          1.5967   -1.3712   -0.0053 H         1 <0>         0.3700
      6 C1         -0.0560   -0.1287   -0.0050 C.ar      1 <0>         0.1170
      7 C2         -0.6073    1.1555   -0.0039 C.ar      1 <0>        -0.1500
      8 H3          0.0147    2.0445   -0.0043 H         1 <0>         0.1500
      9 C3         -0.9194   -1.2357   -0.0032 C.ar      1 <0>        -0.1500
     10 H4         -0.5242   -2.2492   -0.0033 H         1 <0>         0.1500
     11 C4         -1.9950    1.3304   -0.0009 C.ar      1 <0>        -0.1500
     12 H5         -2.4171    2.3317    0.0008 H         1 <0>         0.1500
     13 C5         -2.3074   -1.0628   -0.0003 C.ar      1 <0>        -0.1500
     14 H6         -2.9511   -1.9374    0.0020 H         1 <0>         0.1500
     15 C6         -2.8340    0.2226    0.0011 C.ar      1 <0>         0.0820
     16 C7          2.3625    0.5341   -0.0045 C.2       1 <0>         0.5690
     17 C8          3.7147   -0.1353    0.0040 C.3       1 <0>         0.0610
     18 H7          3.7933   -0.8326   -0.8353 H         1 <0>         0.0000
     19 H8          3.8487   -0.6786    0.9430 H         1 <0>         0.0000
     20 H9          4.5018    0.6172   -0.0882 H         1 <0>         0.0000
@<TRIPOS>BOND
     1    1    2 1
     2    1   15 1
     3    3   16 2
     4    4    5 1
     5    4    6 1
     6    4   16 am
     7    6    7 ar
     8    6    9 ar
     9    7    8 1
    10    7   11 ar
    11    9   10 1
    12    9   13 ar
    13   11   12 1
    14   11   15 ar
    15   13   14 1
    16   13   15 ar
    17   16   17 1
    18   17   18 1
    19   17   19 1
    20   17   20 1
