@<TRIPOS>MOLECULE
DB00185
   30    32     0     0     0
SMALL
USER_CHARGES

@<TRIPOS>ATOM
      1 C1         -0.9477    0.3174    1.0655 C.3       1 <0>         0.0000
      2 H1         -0.7886    0.7385    2.0642 H         1 <0>         0.0000
      3 C2         -2.1331    0.9951    0.3569 C.3       1 <0>         0.0000
      4 H2         -1.9736    2.0753    0.2690 H         1 <0>         0.0000
      5 H3         -3.0467    0.8586    0.9480 H         1 <0>         0.0000
      6 C3         -2.3170    0.3694   -1.0343 C.3       1 <0>         0.2700
      7 H4         -2.1856    1.1337   -1.8100 H         1 <0>         0.0000
      8 H5         -3.3474    0.0081   -1.1490 H         1 <0>         0.0000
      9 N1         -1.3711   -0.7433   -1.2657 N.3       1 <0>        -0.8100
     10 C4          0.0194   -0.2221   -1.1882 C.3       1 <0>         0.2700
     11 H6          0.7085   -1.0524   -1.3818 H         1 <0>         0.0000
     12 H7          0.1624    0.4834   -2.0162 H         1 <0>         0.0000
     13 C5         -1.3064   -1.1771    1.1923 C.3       1 <0>         0.0000
     14 H8         -2.2081   -1.2946    1.8052 H         1 <0>         0.0000
     15 H9         -0.5062   -1.7287    1.6977 H         1 <0>         0.0000
     16 C6         -1.5503   -1.7609   -0.2072 C.3       1 <0>         0.2700
     17 H10        -2.5624   -2.1813   -0.2670 H         1 <0>         0.0000
     18 H11        -0.8719   -2.6051   -0.3854 H         1 <0>         0.0000
     19 C7          0.7569    1.9200    0.0417 C.3       1 <0>         0.2300
     20 H12         0.6696    2.4530    0.9930 H         1 <0>         0.0000
     21 H13         0.1959    2.4680   -0.7195 H         1 <0>         0.0000
     22 C8          0.3291    0.4520    0.1871 C.3       1 <0>         0.2800
     23 O1          1.3922   -0.2582    0.8640 O.3       1 <0>        -0.5600
     24 C9          2.6813    0.2729    0.5294 C.3       1 <0>         0.5100
     25 H14         3.2019    0.4697    1.4724 H         1 <0>         0.0000
     26 S1          2.5014    1.8251   -0.3674 S.3       1 <0>        -0.4600
     27 C10         3.4734   -0.7462   -0.2734 C.3       1 <0>         0.0000
     28 H15         2.9950   -0.9798   -1.2295 H         1 <0>         0.0000
     29 H16         3.5357   -1.6914    0.2779 H         1 <0>         0.0000
     30 H17         4.4932   -0.3993   -0.4698 H         1 <0>         0.0000
@<TRIPOS>BOND
     1    1    2 1
     2    1    3 1
     3    1   13 1
     4    1   22 1
     5    3    4 1
     6    3    5 1
     7    3    6 1
     8    6    7 1
     9    6    8 1
    10    6    9 1
    11    9   10 1
    12    9   16 1
    13   10   11 1
    14   10   12 1
    15   10   22 1
    16   13   14 1
    17   13   15 1
    18   13   16 1
    19   16   17 1
    20   16   18 1
    21   19   20 1
    22   19   21 1
    23   19   22 1
    24   19   26 1
    25   22   23 1
    26   23   24 1
    27   24   25 1
    28   24   26 1
    29   24   27 1
    30   27   28 1
    31   27   29 1
    32   27   30 1
