@<TRIPOS>MOLECULE
DB00499
   30    30     0     0     0
SMALL
USER_CHARGES

@<TRIPOS>ATOM
      1 F1         -4.8974    1.3284    1.0215 F         1 <0>        -0.3400
      2 F2         -3.2865    2.7708    0.9235 F         1 <0>        -0.3400
      3 F3         -4.2723    2.1464   -0.9036 F         1 <0>        -0.3400
      4 O1          2.0285   -1.7797   -0.0349 O.2       1 <0>        -0.5700
      5 O2         -4.9906   -2.0747    0.4386 O.2       1 <0>        -0.5200
      6 O3         -5.2398   -0.5176   -1.0995 O.2       1 <0>        -0.5200
      7 N1          0.8899    0.2428    0.2217 N.am      1 <0>        -0.5470
      8 H1          1.0502    1.2310    0.3816 H         1 <0>         0.3700
      9 N2         -4.5784   -1.1429   -0.2629 N.pl3     1 <0>         0.9070
     10 C1          3.3120    0.2390    0.2886 C.3       1 <0>         0.0610
     11 H2          3.1946    0.9163    1.1441 H         1 <0>         0.0000
     12 C2         -0.4602   -0.1550    0.1074 C.ar      1 <0>         0.1170
     13 C3          2.0173   -0.5666    0.1399 C.2       1 <0>         0.5690
     14 C4         -2.8118    0.5667    0.1306 C.ar      1 <0>        -0.1440
     15 C5         -1.4351    0.8511    0.2255 C.ar      1 <0>        -0.1500
     16 H3         -1.1230    1.8815    0.4014 H         1 <0>         0.1500
     17 C6          3.5638    1.0666   -0.9716 C.3       1 <0>         0.0000
     18 H4          3.6407    0.4258   -1.8563 H         1 <0>         0.0000
     19 H5          4.4916    1.6408   -0.8823 H         1 <0>         0.0000
     20 H6          2.7495    1.7767   -1.1529 H         1 <0>         0.0000
     21 C7          4.5023   -0.6766    0.5700 C.3       1 <0>         0.0000
     22 H7          4.6819   -1.3685   -0.2607 H         1 <0>         0.0000
     23 H8          4.3276   -1.2766    1.4696 H         1 <0>         0.0000
     24 H9          5.4149   -0.0915    0.7263 H         1 <0>         0.0000
     25 C8         -3.1822   -0.7651   -0.1074 C.ar      1 <0>         0.1330
     26 C9         -0.8707   -1.4718   -0.1126 C.ar      1 <0>        -0.1500
     27 H10        -0.1572   -2.2836   -0.2092 H         1 <0>         0.1500
     28 C10        -2.2279   -1.7827   -0.2213 C.ar      1 <0>        -0.1500
     29 H11        -2.5223   -2.8153   -0.4007 H         1 <0>         0.1500
     30 C11        -3.8092    1.6843    0.2859 C.3       1 <0>         1.1640
@<TRIPOS>BOND
     1    1   30 1
     2    2   30 1
     3    3   30 1
     4    4   13 2
     5    5    9 2
     6    6    9 2
     7    7    8 1
     8    7   12 1
     9    7   13 am
    10    9   25 1
    11   10   11 1
    12   10   13 1
    13   10   17 1
    14   10   21 1
    15   12   15 ar
    16   12   26 ar
    17   14   15 ar
    18   14   25 ar
    19   14   30 1
    20   15   16 1
    21   17   18 1
    22   17   19 1
    23   17   20 1
    24   21   22 1
    25   21   23 1
    26   21   24 1
    27   25   28 ar
    28   26   27 1
    29   26   28 ar
    30   28   29 1
