@<TRIPOS>MOLECULE
DB00260
   14    14     0     0     0
SMALL
USER_CHARGES

@<TRIPOS>ATOM
      1 O1          1.7736   -0.9883   -0.0958 O.3       1 <0>        -0.3160
      2 C1          0.3714   -1.2467    0.0534 C.3       1 <0>         0.2800
      3 N1          1.9017    0.4090    0.0767 N.am      1 <0>        -0.3940
      4 C2         -0.3123    0.0039   -0.4676 C.3       1 <0>         0.5640
      5 N2         -1.6290    0.2583    0.1829 N.4       1 <0>        -0.8530
      6 C3          0.7069    1.0494   -0.1216 C.2       1 <0>         0.5690
      7 O2          0.4705    2.2414   -0.0174 O.2       1 <0>        -0.5700
      8 H1          0.1003   -2.1335   -0.5264 H         1 <0>         0.0000
      9 H2          0.1657   -1.4387    1.1131 H         1 <0>         0.0000
     10 H3          2.7956    0.8174    0.3239 H         1 <0>         0.3700
     11 H4         -0.4635   -0.0120   -1.5510 H         1 <0>         0.0000
     12 H5         -1.5706    0.2523    1.2111 H         1 <0>         0.4500
     13 H6         -2.3522   -0.4145   -0.1045 H         1 <0>         0.4500
     14 H7         -1.9581    1.2018   -0.0767 H         1 <0>         0.4500
@<TRIPOS>BOND
     1    1    2 1
     2    1    3 1
     3    2    4 1
     4    2    8 1
     5    2    9 1
     6    3    6 am
     7    3   10 1
     8    4    5 1
     9    4    6 1
    10    4   11 1
    11    5   12 1
    12    5   13 1
    13    5   14 1
    14    6    7 2
