@<TRIPOS>MOLECULE
DB00824
   24    25     0     0     0
SMALL
USER_CHARGES

@<TRIPOS>ATOM
      1 O1         -0.7180    2.4439    0.0004 O.2       1 <0>        -0.5700
      2 O2          3.7935    1.9465   -0.0004 O.2       1 <0>        -0.5700
      3 N1          0.0558    0.2336   -0.0002 N.am      1 <0>        -0.4230
      4 N2          1.5054    2.1260    0.0001 N.am      1 <0>        -0.4900
      5 H1          1.5849    3.1323   -0.0004 H         1 <0>         0.3700
      6 N3          3.3293   -1.0315    0.0003 N.pl3     1 <0>         0.0330
      7 H2          4.3398   -0.9783    0.0003 H         1 <0>         0.2700
      8 N4          1.2770   -1.9018    0.0005 N.2       1 <0>        -0.5650
      9 C1         -1.2361   -0.4723   -0.0017 C.3       1 <0>         0.3000
     10 H3         -1.2400   -1.1209   -0.8875 H         1 <0>         0.0000
     11 H4         -1.2391   -1.1267    0.8807 H         1 <0>         0.0000
     12 C2          1.2125   -0.5376    0.0001 C.2       1 <0>         0.2900
     13 C3         -2.5196    0.3581    0.0020 C.3       1 <0>         0.0000
     14 H5         -2.5530    0.9989    0.8898 H         1 <0>         0.0000
     15 H6         -2.5544    1.0033   -0.8833 H         1 <0>         0.0000
     16 C4          2.4596    0.0184   -0.0001 C.2       1 <0>        -0.2370
     17 C5          0.2030    1.6278   -0.0004 C.2       1 <0>         0.6900
     18 C6          2.6900    1.4146   -0.0000 C.2       1 <0>         0.7150
     19 C7         -3.7533   -0.5328   -0.0004 C.3       1 <0>         0.0000
     20 H7         -3.7752   -1.1751    0.8858 H         1 <0>         0.0000
     21 H8         -3.7748   -1.1721   -0.8884 H         1 <0>         0.0000
     22 H9         -4.6615    0.0778    0.0014 H         1 <0>         0.0000
     23 C8          2.5669   -2.1718    0.0004 C.2       1 <0>         0.0370
     24 H10         3.0074   -3.1605    0.0010 H         1 <0>         0.1500
@<TRIPOS>BOND
     1    1   17 2
     2    2   18 2
     3    3    9 1
     4    3   12 1
     5    3   17 am
     6    4    5 1
     7    4   17 am
     8    4   18 am
     9    6    7 1
    10    6   16 1
    11    6   23 1
    12    8   12 1
    13    8   23 2
    14    9   10 1
    15    9   11 1
    16    9   13 1
    17   12   16 2
    18   13   14 1
    19   13   15 1
    20   13   19 1
    21   16   18 1
    22   19   20 1
    23   19   21 1
    24   19   22 1
    25   23   24 1
