@<TRIPOS>MOLECULE
DB00484
   27    29     0     0     0
SMALL
USER_CHARGES

@<TRIPOS>ATOM
      1 Br1         1.1029   -3.0058   -0.0032 Br        1 <0>        -0.1110
      2 N1         -3.3506   -1.0864    0.0315 N.pl3     1 <0>        -0.8190
      3 H1         -3.3133   -2.0923    0.0811 H         1 <0>         0.4000
      4 N2         -1.0772   -0.8369    0.0331 N.pl3     1 <0>        -0.5500
      5 H2         -1.0757   -1.8472    0.0513 H         1 <0>         0.4000
      6 N3         -2.5979    1.0364   -0.0365 N.2       1 <0>        -0.6960
      7 N4          3.7508   -1.4081   -0.0224 N.ar      1 <0>        -0.6200
      8 N5          4.0589    1.3688    0.0009 N.ar      1 <0>        -0.6200
      9 C1         -4.5855   -0.3638   -0.0295 C.3       1 <0>         0.3690
     10 H3         -5.2179   -0.5699    0.8394 H         1 <0>         0.0000
     11 H4         -5.1385   -0.6013   -0.9432 H         1 <0>         0.0000
     12 C2         -4.0868    1.0833   -0.0355 C.3       1 <0>         0.2460
     13 H5         -4.4407    1.6192   -0.9233 H         1 <0>         0.0000
     14 H6         -4.4336    1.6237    0.8522 H         1 <0>         0.0000
     15 C3         -2.2951   -0.2312    0.0105 C.2       1 <0>         0.5500
     16 C4          0.2118   -0.2671    0.0316 C.ar      1 <0>         0.1000
     17 C5          1.3527   -1.1010    0.0120 C.ar      1 <0>         0.1110
     18 C6          2.6646   -0.5985    0.0008 C.ar      1 <0>         0.3100
     19 C7          0.4322    1.1095    0.0429 C.ar      1 <0>        -0.1500
     20 H7         -0.3926    1.8150    0.0597 H         1 <0>         0.1500
     21 C8          2.8384    0.8029    0.0114 C.ar      1 <0>         0.3100
     22 C9          1.7281    1.6280    0.0333 C.ar      1 <0>        -0.1500
     23 H8          1.8683    2.7067    0.0421 H         1 <0>         0.1500
     24 C10         4.9680   -0.8280   -0.0335 C.ar      1 <0>         0.1600
     25 H9          5.8157   -1.5007   -0.0530 H         1 <0>         0.1500
     26 C11         5.1187    0.5376   -0.0222 C.ar      1 <0>         0.1600
     27 H10         6.0942    1.0075   -0.0314 H         1 <0>         0.1500
@<TRIPOS>BOND
     1    1   17 1
     2    2    3 1
     3    2    9 1
     4    2   15 1
     5    4    5 1
     6    4   15 1
     7    4   16 1
     8    6   12 1
     9    6   15 2
    10    7   18 ar
    11    7   24 ar
    12    8   21 ar
    13    8   26 ar
    14    9   10 1
    15    9   11 1
    16    9   12 1
    17   12   13 1
    18   12   14 1
    19   16   17 ar
    20   16   19 ar
    21   17   18 ar
    22   18   21 ar
    23   19   20 1
    24   19   22 ar
    25   21   22 ar
    26   22   23 1
    27   24   25 1
    28   24   26 ar
    29   26   27 1
