@<TRIPOS>MOLECULE
DB00553
   24    26     0     0     0
SMALL
USER_CHARGES

@<TRIPOS>ATOM
      1 O1         -2.6856   -0.1300   -0.0050 O.3       1 <0>        -0.2800
      2 O2          1.8926    1.5656   -0.0039 O.3       1 <0>        -0.2320
      3 O3         -0.6978    2.2346   -0.0060 O.3       1 <0>        -0.3630
      4 O4          4.0844    2.2294   -0.0053 O.2       1 <0>        -0.5700
      5 C1         -0.9287   -1.5392   -0.0003 C.ar      1 <0>         0.0000
      6 C2         -1.3202   -0.1992   -0.0029 C.ar      1 <0>         0.1400
      7 C3          1.3788   -0.8121    0.0012 C.ar      1 <0>         0.0280
      8 C4          0.9382    0.5144   -0.0023 C.ar      1 <0>         0.0820
      9 C5         -0.4215    0.8783   -0.0033 C.ar      1 <0>         0.0820
     10 C6          0.4437   -1.8546    0.0017 C.ar      1 <0>        -0.1500
     11 H1          0.7608   -2.8933    0.0046 H         1 <0>         0.1500
     12 C7         -2.1266   -2.3026   -0.0002 C.2       1 <0>        -0.1500
     13 H2         -2.2206   -3.3793    0.0012 H         1 <0>         0.1500
     14 C8          2.8075   -1.0848    0.0021 C.2       1 <0>        -0.1780
     15 H3          3.1480   -2.1145    0.0050 H         1 <0>         0.1500
     16 C9         -3.1616   -1.3997   -0.0033 C.2       1 <0>        -0.0100
     17 H4         -4.2379   -1.4943   -0.0049 H         1 <0>         0.1500
     18 C10         3.6800   -0.0775    0.0007 C.2       1 <0>        -0.1360
     19 H5          4.7490   -0.2551    0.0012 H         1 <0>         0.1500
     20 C11         3.2578    1.3243   -0.0038 C.2       1 <0>         0.7060
     21 C12        -2.0704    2.5999    0.0040 C.3       1 <0>         0.2800
     22 H6         -2.1220    3.6930    0.0068 H         1 <0>         0.0000
     23 H7         -2.5678    2.2467    0.9124 H         1 <0>         0.0000
     24 H8         -2.5802    2.2502   -0.8996 H         1 <0>         0.0000
@<TRIPOS>BOND
     1    1    6 1
     2    1   16 1
     3    2    8 1
     4    2   20 1
     5    3    9 1
     6    3   21 1
     7    4   20 2
     8    5    6 ar
     9    5   10 ar
    10    5   12 1
    11    6    9 ar
    12    7    8 ar
    13    7   10 ar
    14    7   14 1
    15    8    9 ar
    16   10   11 1
    17   12   13 1
    18   12   16 2
    19   14   15 1
    20   14   18 2
    21   16   17 1
    22   18   19 1
    23   18   20 1
    24   21   22 1
    25   21   23 1
    26   21   24 1
