@<TRIPOS>MOLECULE
DB00911
   29    29     0     0     0
SMALL
USER_CHARGES

@<TRIPOS>ATOM
      1 S1          2.0293    1.6556   -0.1859 S.o2      1 <0>         1.0900
      2 O1          1.7575    2.6465    0.8382 O.2       1 <0>        -0.6500
      3 O2          2.6975    2.0391   -1.4155 O.2       1 <0>        -0.6500
      4 O3         -4.2824    2.2341    0.1716 O.2       1 <0>        -0.5200
      5 O4         -2.1362    2.6766   -0.0180 O.2       1 <0>        -0.5200
      6 N1         -1.6202   -0.1015    0.2098 N.pl3     1 <0>         0.0480
      7 N2         -3.0951   -1.7092   -0.2611 N.2       1 <0>        -0.5650
      8 N3         -3.0966    1.9046    0.0620 N.pl3     1 <0>         0.9600
      9 C1          0.4727    0.9072   -0.6384 C.3       1 <0>         0.1050
     10 H1         -0.0582    1.6521   -1.2398 H         1 <0>         0.0000
     11 H2          0.6819    0.0614   -1.2982 H         1 <0>         0.0000
     12 C2         -0.3459    0.5003    0.5751 C.3       1 <0>         0.2560
     13 H3         -0.5462    1.3404    1.2459 H         1 <0>         0.0000
     14 H4          0.1965   -0.2301    1.1837 H         1 <0>         0.0000
     15 C3          2.9980    0.3621    0.5772 C.3       1 <0>         0.1050
     16 H5          3.9374    0.8306    0.8892 H         1 <0>         0.0000
     17 H6          2.4738    0.0322    1.4779 H         1 <0>         0.0000
     18 C4         -1.8307   -1.4598    0.0233 C.2       1 <0>         0.0070
     19 C5         -2.8327    0.5087   -0.0005 C.2       1 <0>        -0.0720
     20 C6          3.2878   -0.8027   -0.3454 C.3       1 <0>         0.0000
     21 H7          3.7843   -0.4724   -1.2629 H         1 <0>         0.0000
     22 H8          2.3716   -1.3275   -0.6284 H         1 <0>         0.0000
     23 H9          3.9423   -1.5239    0.1536 H         1 <0>         0.0000
     24 C7         -3.7264   -0.4965   -0.2709 C.2       1 <0>         0.0770
     25 H10        -4.7859   -0.4166   -0.4797 H         1 <0>         0.1500
     26 C8         -0.7713   -2.4960    0.1385 C.3       1 <0>         0.1800
     27 H11        -1.1747   -3.4826   -0.1113 H         1 <0>         0.0000
     28 H12        -0.3817   -2.5434    1.1597 H         1 <0>         0.0000
     29 H13         0.0536   -2.2894   -0.5495 H         1 <0>         0.0000
@<TRIPOS>BOND
     1    1    2 2
     2    1    3 2
     3    1    9 1
     4    1   15 1
     5    4    8 2
     6    5    8 2
     7    6   12 1
     8    6   18 1
     9    6   19 1
    10    7   18 2
    11    7   24 1
    12    8   19 1
    13    9   10 1
    14    9   11 1
    15    9   12 1
    16   12   13 1
    17   12   14 1
    18   15   16 1
    19   15   17 1
    20   15   20 1
    21   18   26 1
    22   19   24 2
    23   20   21 1
    24   20   22 1
    25   20   23 1
    26   24   25 1
    27   26   27 1
    28   26   28 1
    29   26   29 1
