@<TRIPOS>MOLECULE
DB00134
   20    19     0     0     0
SMALL
USER_CHARGES

@<TRIPOS>ATOM
      1 S1         -2.2928    0.8608    0.9210 S.3       1 <0>        -0.4600
      2 O1          3.1044    1.4869   -0.5584 O.3       1 <0>        -0.6500
      3 H1          3.9688    1.7635   -0.1861 H         1 <0>         0.5000
      4 O2          3.5799   -0.1496    0.8922 O.2       1 <0>        -0.5700
      5 N1          1.5481   -1.7360   -0.2898 N.3       1 <0>        -0.9900
      6 H2          0.6359   -2.1566   -0.4484 H         1 <0>         0.3600
      7 H3          1.8322   -1.9917    0.6582 H         1 <0>         0.3600
      8 C1          0.3657    0.3449    0.4522 C.3       1 <0>         0.0000
      9 H4          0.4987    1.4350    0.4758 H         1 <0>         0.0000
     10 H5          0.4620    0.0023    1.4915 H         1 <0>         0.0000
     11 C2          1.4872   -0.2695   -0.3984 C.3       1 <0>         0.3310
     12 H6          1.3490   -0.0209   -1.4567 H         1 <0>         0.0000
     13 C3         -1.0289    0.0189   -0.0846 C.3       1 <0>         0.2300
     14 H7         -1.2187   -1.0575   -0.0444 H         1 <0>         0.0000
     15 H8         -1.1211    0.3545   -1.1225 H         1 <0>         0.0000
     16 C4          2.8247    0.3151    0.0516 C.2       1 <0>         0.6590
     17 C5         -3.7660    0.2856    0.0433 C.3       1 <0>         0.2300
     18 H9         -4.6560    0.7125    0.5134 H         1 <0>         0.0000
     19 H10        -3.8363   -0.8047    0.0918 H         1 <0>         0.0000
     20 H11        -3.7367    0.6068   -1.0019 H         1 <0>         0.0000
@<TRIPOS>BOND
     1    1   13 1
     2    1   17 1
     3    2    3 1
     4    2   16 1
     5    4   16 2
     6    5    6 1
     7    5    7 1
     8    5   11 1
     9    8    9 1
    10    8   10 1
    11    8   11 1
    12    8   13 1
    13   11   12 1
    14   11   16 1
    15   13   14 1
    16   13   15 1
    17   17   18 1
    18   17   19 1
    19   17   20 1
