@<TRIPOS>MOLECULE
DB00356
   15    16     0     0     0
SMALL
USER_CHARGES

@<TRIPOS>ATOM
      1 Cl1        -3.3094   -1.6185   -0.0004 Cl        1 <0>        -0.1770
      2 O1          1.6645    1.4549   -0.0003 O.3       1 <0>        -0.2320
      3 O2          3.7449    0.4366   -0.0004 O.2       1 <0>        -0.5700
      4 N1          1.8146   -0.8345    0.0004 N.am      1 <0>        -0.5470
      5 H1          2.2308   -1.7524    0.0006 H         1 <0>         0.3700
      6 C1          0.4845   -0.5200    0.0002 C.ar      1 <0>         0.1170
      7 C2          0.4139    0.8578   -0.0003 C.ar      1 <0>         0.0820
      8 C3         -0.6268   -1.3298   -0.0005 C.ar      1 <0>        -0.1500
      9 H2         -0.5468   -2.4098   -0.0001 H         1 <0>         0.1500
     10 C4         -0.7971    1.5148   -0.0004 C.ar      1 <0>        -0.1500
     11 H3         -0.8522    2.5979    0.0004 H         1 <0>         0.1500
     12 C5         -1.8632   -0.6808    0.0003 C.ar      1 <0>         0.1770
     13 C6          2.5252    0.3466   -0.0000 C.2       1 <0>         0.7800
     14 C7         -1.9542    0.7265    0.0005 C.ar      1 <0>        -0.1500
     15 H4         -2.9287    1.2107    0.0001 H         1 <0>         0.1500
@<TRIPOS>BOND
     1    1   12 1
     2    2    7 1
     3    2   13 1
     4    3   13 2
     5    4    5 1
     6    4    6 1
     7    4   13 am
     8    6    7 ar
     9    6    8 ar
    10    7   10 ar
    11    8    9 1
    12    8   12 ar
    13   10   11 1
    14   10   14 ar
    15   12   14 ar
    16   14   15 1
