@<TRIPOS>MOLECULE
DB00898
    9     8     0     0     0
SMALL
USER_CHARGES

@<TRIPOS>ATOM
      1 O1         -1.2756   -0.8043    0.0000 O.3       1 <0>        -0.6800
      2 H1         -2.1913   -0.4753    0.0009 H         1 <0>         0.4000
      3 C1         -0.4248    0.3321   -0.0002 C.3       1 <0>         0.2800
      4 H2         -0.6355    0.9299   -0.8922 H         1 <0>         0.0000
      5 H3         -0.6347    0.9309    0.8910 H         1 <0>         0.0000
      6 C2          1.0158   -0.1319    0.0002 C.3       1 <0>         0.0000
      7 H4          1.2225   -0.7520   -0.8791 H         1 <0>         0.0000
      8 H5          1.2227   -0.7498    0.8801 H         1 <0>         0.0000
      9 H6          1.7008    0.7205   -0.0006 H         1 <0>         0.0000
@<TRIPOS>BOND
     1    1    2 1
     2    1    3 1
     3    3    4 1
     4    3    5 1
     5    3    6 1
     6    6    7 1
     7    6    8 1
     8    6    9 1
