@<TRIPOS>MOLECULE
DB00575
   23    24     0     0     0
SMALL
USER_CHARGES

@<TRIPOS>ATOM
      1 Cl1         0.4865   -2.1202   -1.2955 Cl        1 <0>        -0.1770
      2 Cl2         1.8226    2.9104    0.4710 Cl        1 <0>        -0.1770
      3 N1         -2.4365    0.8260   -0.5631 N.pl3     1 <0>        -0.8190
      4 H1         -2.4863    1.5901   -1.2188 H         1 <0>         0.4000
      5 N2         -0.1440    0.8628   -0.4464 N.pl3     1 <0>        -0.5500
      6 H2         -0.1991    1.7937   -0.8357 H         1 <0>         0.4000
      7 N3         -1.4760   -0.7381    0.7520 N.2       1 <0>        -0.6960
      8 C1         -3.5946    0.1710   -0.0336 C.3       1 <0>         0.3690
      9 H3         -4.2355   -0.2270   -0.8252 H         1 <0>         0.0000
     10 H4         -4.1760    0.8509    0.5975 H         1 <0>         0.0000
     11 C2         -2.9514   -0.9469    0.7947 C.3       1 <0>         0.2460
     12 H5         -3.3010   -0.9203    1.8325 H         1 <0>         0.0000
     13 H6         -3.1896   -1.9319    0.3776 H         1 <0>         0.0000
     14 C3         -1.3035    0.2659   -0.0665 C.2       1 <0>         0.5500
     15 C4          1.1671    0.3628   -0.2960 C.ar      1 <0>         0.1000
     16 C5          1.5397   -0.9750   -0.5320 C.ar      1 <0>         0.1770
     17 C6          2.1715    1.2365    0.1770 C.ar      1 <0>         0.1770
     18 C7          2.8468   -1.4169   -0.2740 C.ar      1 <0>        -0.1500
     19 H7          3.1248   -2.4506   -0.4693 H         1 <0>         0.1500
     20 C8          3.4748    0.7950    0.4307 C.ar      1 <0>        -0.1500
     21 H8          4.2301    1.4842    0.7999 H         1 <0>         0.1500
     22 C9          3.8092   -0.5366    0.2142 C.ar      1 <0>        -0.1500
     23 H9          4.8203   -0.8857    0.4089 H         1 <0>         0.1500
@<TRIPOS>BOND
     1    1   16 1
     2    2   17 1
     3    3    4 1
     4    3    8 1
     5    3   14 1
     6    5    6 1
     7    5   14 1
     8    5   15 1
     9    7   11 1
    10    7   14 2
    11    8    9 1
    12    8   10 1
    13    8   11 1
    14   11   12 1
    15   11   13 1
    16   15   16 ar
    17   15   17 ar
    18   16   18 ar
    19   17   20 ar
    20   18   19 1
    21   18   22 ar
    22   20   21 1
    23   20   22 ar
    24   22   23 1
