@<TRIPOS>MOLECULE
DB00996
   29    29     0     0     0
SMALL
USER_CHARGES

@<TRIPOS>ATOM
      1 O1          2.8017   -2.5071   -0.5176 O.3       1 <0>        -0.6500
      2 H1          3.5480   -2.7608    0.0655 H         1 <0>         0.5000
      3 O2          2.6663   -1.0216    1.1412 O.2       1 <0>        -0.5700
      4 N1          0.8141    2.8161    0.1725 N.3       1 <0>        -0.9900
      5 H2          1.5537    3.5157    0.1157 H         1 <0>         0.3600
      6 H3          0.5116    2.8126    1.1457 H         1 <0>         0.3600
      7 C1          0.3273    0.3389   -0.1741 C.3       1 <0>         0.0000
      8 C2         -0.8392    0.6850   -1.1509 C.3       1 <0>         0.0000
      9 H4         -1.2590    1.6677   -0.9008 H         1 <0>         0.0000
     10 H5         -0.4601    0.7659   -2.1774 H         1 <0>         0.0000
     11 C3         -0.2772    0.1277    1.2413 C.3       1 <0>         0.0000
     12 H6          0.4943   -0.1647    1.9601 H         1 <0>         0.0000
     13 H7         -0.6880    1.0736    1.6150 H         1 <0>         0.0000
     14 C4         -1.9924   -0.3226   -1.1212 C.3       1 <0>         0.0000
     15 H8         -2.8056    0.0419   -1.7592 H         1 <0>         0.0000
     16 H9         -1.6730   -1.2789   -1.5497 H         1 <0>         0.0000
     17 C5         -1.4086   -0.9009    1.2729 C.3       1 <0>         0.0000
     18 H10        -1.0219   -1.9013    1.0488 H         1 <0>         0.0000
     19 H11        -1.8239   -0.9506    2.2858 H         1 <0>         0.0000
     20 C6         -2.5197   -0.5400    0.2925 C.3       1 <0>         0.0000
     21 H12        -3.2779   -1.3315    0.2856 H         1 <0>         0.0000
     22 H13        -3.0202    0.3744    0.6352 H         1 <0>         0.0000
     23 C7          1.0377   -0.9488   -0.7010 C.3       1 <0>         0.0610
     24 H14         0.3348   -1.7852   -0.7580 H         1 <0>         0.0000
     25 H15         1.3964   -0.7575   -1.7213 H         1 <0>         0.0000
     26 C8          1.3640    1.5074   -0.1776 C.3       1 <0>         0.2700
     27 H16         2.1830    1.3020    0.5173 H         1 <0>         0.0000
     28 H17         1.8092    1.5910   -1.1764 H         1 <0>         0.0000
     29 C9          2.2246   -1.4483    0.0901 C.2       1 <0>         0.6590
@<TRIPOS>BOND
     1    1    2 1
     2    1   29 1
     3    3   29 2
     4    4    5 1
     5    4    6 1
     6    4   26 1
     7    7    8 1
     8    7   11 1
     9    7   23 1
    10    7   26 1
    11    8    9 1
    12    8   10 1
    13    8   14 1
    14   11   12 1
    15   11   13 1
    16   11   17 1
    17   14   15 1
    18   14   16 1
    19   14   20 1
    20   17   18 1
    21   17   19 1
    22   17   20 1
    23   20   21 1
    24   20   22 1
    25   23   24 1
    26   23   25 1
    27   23   29 1
    28   26   27 1
    29   26   28 1
