@<TRIPOS>MOLECULE
DB00331
   20    19     0     0     0
SMALL
USER_CHARGES

@<TRIPOS>ATOM
      1 N1         -3.1540    0.6950   -0.3435 N.pl3     1 <0>        -0.8500
      2 H1         -4.1206    0.5260   -0.0944 H         1 <0>         0.4000
      3 H2         -2.9486    1.4724   -0.9518 H         1 <0>         0.4000
      4 N2         -2.6250   -1.1580    0.8834 N.2       1 <0>        -0.8500
      5 H3         -1.7917   -1.6505    1.2238 H         1 <0>         0.4000
      6 C1         -2.2378   -0.1619    0.1568 C.2       1 <0>         0.5500
      7 N3         -0.9468    0.1246   -0.1702 N.pl3     1 <0>        -0.5000
      8 H4         -0.8039    1.0722   -0.4792 H         1 <0>         0.4000
      9 N4          0.1624   -1.9228   -0.3061 N.2       1 <0>        -0.8500
     10 H5         -0.8102   -2.2008   -0.4739 H         1 <0>         0.4000
     11 C2          0.1955   -0.6304   -0.1674 C.2       1 <0>         0.5500
     12 C3          1.4977    1.4525    0.3749 C.3       1 <0>         0.3690
     13 H6          0.7747    1.6994    1.1604 H         1 <0>         0.0000
     14 H7          1.3209    2.1035   -0.4867 H         1 <0>         0.0000
     15 H8          2.4904    1.6840    0.7780 H         1 <0>         0.0000
     16 N5          1.3864    0.0560   -0.0182 N.pl3     1 <0>        -0.7880
     17 C4          2.6479   -0.6493   -0.2279 C.3       1 <0>         0.3690
     18 H9          2.8886   -1.2571    0.6496 H         1 <0>         0.0000
     19 H10         3.4777    0.0462   -0.4000 H         1 <0>         0.0000
     20 H11         2.5965   -1.3010   -1.1076 H         1 <0>         0.0000
@<TRIPOS>BOND
     1    1    2 1
     2    1    3 1
     3    1    6 1
     4    4    5 1
     5    4    6 2
     6    6    7 1
     7    7    8 1
     8    7   11 1
     9    9   10 1
    10    9   11 2
    11   11   16 1
    12   12   13 1
    13   12   14 1
    14   12   15 1
    15   12   16 1
    16   16   17 1
    17   17   18 1
    18   17   19 1
    19   17   20 1
