@<TRIPOS>MOLECULE
DB00325
   13    12     0     0     0
SMALL
USER_CHARGES

@<TRIPOS>ATOM
      1 N1         -1.2559    0.0039   -2.7015 N.1       1 <0>        -0.5570
      2 C1          1.1924    1.3827   -0.4905 C.1       1 <0>         0.3770
      3 C2         -0.7850    0.0023   -1.6404 C.1       1 <0>         0.3770
      4 C3          1.2081   -1.3628   -0.5040 C.1       1 <0>         0.3770
      5 N2          1.9061    2.2166   -0.8700 N.1       1 <0>        -0.5570
      6 N3          1.9295   -2.1853   -0.8917 N.1       1 <0>        -0.5570
      7 Fe1        -0.0061   -0.0005    0.1212 Fe        1 <0>        -0.7980
      8 C4         -1.2931    1.3499    0.6076 C.1       1 <0>         0.3770
      9 N4         -2.0692    2.1618    0.8993 N.1       1 <0>        -0.5570
     10 C5         -1.2760   -1.3686    0.5980 C.1       1 <0>         0.3770
     11 N5         -2.0419   -2.1930    0.8875 N.1       1 <0>        -0.5570
     12 N6          0.6408   -0.0026    1.8669 N.2       1 <0>        -0.1410
     13 O1          1.8503   -0.0045    2.1175 O.2       1 <0>        -0.1620
@<TRIPOS>BOND
     1    1    3 3
     2    2    5 3
     3    2    7 1
     4    3    7 1
     5    4    6 3
     6    4    7 1
     7    7    8 1
     8    7   10 1
     9    7   12 1
    10    8    9 3
    11   10   11 3
    12   12   13 2
