@<TRIPOS>MOLECULE
DB00958
   25    24     0     0     0
SMALL
USER_CHARGES

@<TRIPOS>ATOM
      1 C1         -2.0111    0.2990   -1.0888 C.3       1 <0>         0.0000
      2 H1         -2.4202    1.2903   -1.3040 H         1 <0>         0.0000
      3 H2         -1.3631    0.0011   -1.9217 H         1 <0>         0.0000
      4 C2         -3.0564   -0.7608   -0.7036 C.3       1 <0>         0.0000
      5 H3         -3.3477   -1.4514   -1.4983 H         1 <0>         0.0000
      6 H4         -3.9610   -0.3422   -0.2472 H         1 <0>         0.0000
      7 C3         -2.0458   -1.3046    0.3190 C.3       1 <0>         0.0000
      8 H5         -1.4138   -2.1090   -0.0757 H         1 <0>         0.0000
      9 H6         -2.4796   -1.6389    1.2652 H         1 <0>         0.0000
     10 C4         -1.3651    0.1050    0.3223 C.3       1 <0>         0.1060
     11 O1         -1.4230    2.3756    1.1711 O.3       1 <0>        -0.4400
     12 C5         -1.8164    1.0988    1.4356 C.2       1 <0>         0.6670
     13 C6          0.1885    0.1185    0.3742 C.2       1 <0>         0.6670
     14 O2          0.7064    1.3350    0.0414 O.3       1 <0>        -0.4400
     15 Pt1        -0.4430    2.7548   -0.3820 Pt        1 <0>         0.5800
     16 O3         -2.4581    0.8288    2.4471 O.2       1 <0>        -0.5700
     17 O4          0.9273   -0.8232    0.6566 O.2       1 <0>        -0.5700
     18 N1          3.6046    1.2573   -0.7813 N.3       1 <0>        -1.0800
     19 H7          3.7250    0.2461   -0.5405 H         1 <0>         0.3600
     20 H8          4.1721    1.7330   -0.0811 H         1 <0>         0.3600
     21 H9          2.6334    1.4283   -0.5035 H         1 <0>         0.3600
     22 N2          3.5571   -1.3519    0.1572 N.3       1 <0>        -1.0800
     23 H10         2.5501   -1.2386    0.3996 H         1 <0>         0.3600
     24 H11         3.9758   -1.7015    1.0203 H         1 <0>         0.3600
     25 H12         3.5642   -2.1495   -0.4818 H         1 <0>         0.3600
@<TRIPOS>BOND
     1    1    2 1
     2    1    3 1
     3    1    4 1
     4    1   10 1
     5    4    5 1
     6    4    6 1
     7    4    7 1
     8    7    8 1
     9    7    9 1
    10    7   10 1
    11   10   12 1
    12   10   13 1
    13   11   12 1
    14   11   15 1
    15   12   16 2
    16   13   14 1
    17   13   17 2
    18   14   15 1
    19   18   19 1
    20   18   20 1
    21   18   21 1
    22   22   23 1
    23   22   24 1
    24   22   25 1
