@<TRIPOS>MOLECULE
DB00988
   22    22     0     0     0
SMALL
USER_CHARGES

@<TRIPOS>ATOM
      1 O1          2.9345   -1.8668    0.1666 O.3       1 <0>        -0.5320
      2 H1          2.4199   -2.6817    0.0344 H         1 <0>         0.4500
      3 O2          3.9772    0.5993    0.4369 O.3       1 <0>        -0.5320
      4 H2          4.3048   -0.3221    0.4766 H         1 <0>         0.4500
      5 N1         -3.8061   -0.0584    0.2057 N.3       1 <0>        -0.9900
      6 H3         -4.3502   -0.0480    1.0682 H         1 <0>         0.3600
      7 H4         -3.9821   -0.9639   -0.2284 H         1 <0>         0.3600
      8 C1         -1.5358    0.0481   -0.7459 C.3       1 <0>         0.1440
      9 H5         -1.7047   -0.8851   -1.2996 H         1 <0>         0.0000
     10 H6         -1.8393    0.8578   -1.4222 H         1 <0>         0.0000
     11 C2         -0.0636    0.1869   -0.4380 C.ar      1 <0>        -0.1440
     12 C3         -2.3876    0.0712    0.5268 C.3       1 <0>         0.2700
     13 H7         -2.2330    1.0100    1.0693 H         1 <0>         0.0000
     14 H8         -2.0929   -0.7441    1.1992 H         1 <0>         0.0000
     15 C4          0.7428   -0.9518   -0.2815 C.ar      1 <0>        -0.1500
     16 H9          0.3078   -1.9414   -0.3927 H         1 <0>         0.1500
     17 C5          0.5069    1.4640   -0.2830 C.ar      1 <0>        -0.1500
     18 H10        -0.1076    2.3544   -0.3942 H         1 <0>         0.1500
     19 C6          2.0947   -0.7980    0.0100 C.ar      1 <0>         0.0820
     20 C7          1.8642    1.6066    0.0117 C.ar      1 <0>        -0.1500
     21 H11         2.3034    2.5920    0.1271 H         1 <0>         0.1500
     22 C8          2.6468    0.4710    0.1531 C.ar      1 <0>         0.0820
@<TRIPOS>BOND
     1    1    2 1
     2    1   19 1
     3    3    4 1
     4    3   22 1
     5    5    6 1
     6    5    7 1
     7    5   12 1
     8    8    9 1
     9    8   10 1
    10    8   11 1
    11    8   12 1
    12   11   15 ar
    13   11   17 ar
    14   12   13 1
    15   12   14 1
    16   15   16 1
    17   15   19 ar
    18   17   18 1
    19   17   20 ar
    20   19   22 ar
    21   20   21 1
    22   20   22 ar
