@<TRIPOS>MOLECULE
DB00263
   30    31     0     0     0
SMALL
USER_CHARGES

@<TRIPOS>ATOM
      1 S1         -0.2845    1.4870   -0.0385 S.o2      1 <0>         0.8490
      2 O1          2.5209    1.7908   -0.0441 O.3       1 <0>        -0.0190
      3 O2         -0.3036    2.2418   -1.2918 O.2       1 <0>        -0.6500
      4 O3         -0.3061    2.3130    1.1696 O.2       1 <0>        -0.6500
      5 N1          0.6869    0.2202    0.0002 N.2       1 <0>        -0.2350
      6 N2          3.9033    1.7084   -0.0432 N.2       1 <0>        -0.4100
      7 N3         -5.7727   -0.9141    0.0218 N.pl3     1 <0>        -0.9000
      8 C1         -1.9440    0.7597   -0.0204 C.ar      1 <0>        -0.0090
      9 C2          1.9967    0.5390   -0.0114 C.2       1 <0>        -0.1650
     10 C3          3.0062   -0.3981    0.0105 C.2       1 <0>        -0.1810
     11 C4          4.1860    0.4006   -0.0091 C.2       1 <0>         0.1080
     12 C5         -2.5673    0.4425   -1.2269 C.ar      1 <0>        -0.1500
     13 C6         -2.5814    0.5370    1.1987 C.ar      1 <0>        -0.1500
     14 C7          2.8983   -1.8759    0.0498 C.3       1 <0>         0.1810
     15 C8         -3.8460   -0.1187   -1.2054 C.ar      1 <0>        -0.1500
     16 C9         -3.8606   -0.0235    1.2056 C.ar      1 <0>        -0.1500
     17 C10        -4.5045   -0.3579    0.0070 C.ar      1 <0>         0.1000
     18 C11         5.5956   -0.0516    0.0029 C.3       1 <0>         0.1810
     19 H1         -6.2468   -1.0870    0.8962 H         1 <0>         0.4000
     20 H2         -6.2380   -1.1531   -0.8417 H         1 <0>         0.4000
     21 H3         -2.0673    0.6264   -2.1734 H         1 <0>         0.1500
     22 H4         -2.0941    0.7945    2.1351 H         1 <0>         0.1500
     23 H5          2.2628   -2.2406   -0.7634 H         1 <0>         0.0000
     24 H6          2.4656   -2.2028    1.0008 H         1 <0>         0.0000
     25 H7          3.8776   -2.3531   -0.0557 H         1 <0>         0.0000
     26 H8         -4.3269   -0.3664   -2.1479 H         1 <0>         0.1500
     27 H9         -4.3532   -0.1974    2.1584 H         1 <0>         0.1500
     28 H10         6.2921    0.7933    0.0193 H         1 <0>         0.0000
     29 H11         5.8118   -0.6483   -0.8895 H         1 <0>         0.0000
     30 H12         5.7932   -0.6660    0.8866 H         1 <0>         0.0000
@<TRIPOS>BOND
     1    1    3 2
     2    1    4 2
     3    1    5 2
     4    1    8 1
     5    2    6 1
     6    2    9 1
     7    5    9 1
     8    6   11 2
     9    7   17 1
    10    7   19 1
    11    7   20 1
    12    8   12 ar
    13    8   13 ar
    14    9   10 2
    15   10   11 1
    16   10   14 1
    17   11   18 1
    18   12   15 ar
    19   12   21 1
    20   13   16 ar
    21   13   22 1
    22   14   23 1
    23   14   24 1
    24   14   25 1
    25   15   17 ar
    26   15   26 1
    27   16   17 ar
    28   16   27 1
    29   18   28 1
    30   18   29 1
    31   18   30 1
