@<TRIPOS>MOLECULE
DB00617
   22    22     0     0     0
SMALL
USER_CHARGES

@<TRIPOS>ATOM
      1 O1          0.3261    1.2152    1.1284 O.3       1 <0>        -0.4300
      2 O2          0.4140   -1.0364   -1.5337 O.2       1 <0>        -0.5700
      3 O3          2.5024    1.2676    1.7889 O.2       1 <0>        -0.5700
      4 N1          1.7869   -0.0666    0.0504 N.am      1 <0>        -0.4200
      5 C1         -0.4560    0.5052    0.1426 C.3       1 <0>         0.3410
      6 C2         -1.4571   -0.3794    0.8953 C.3       1 <0>         0.0000
      7 H1         -0.9125   -1.1355    1.4767 H         1 <0>         0.0000
      8 H2         -1.9871    0.2296    1.6395 H         1 <0>         0.0000
      9 C3          0.6019   -0.3078   -0.5712 C.2       1 <0>         0.5690
     10 C4         -1.0846    1.5290   -0.7928 C.3       1 <0>         0.0000
     11 H3         -1.5955    1.0557   -1.6372 H         1 <0>         0.0000
     12 H4         -0.3228    2.2017   -1.2033 H         1 <0>         0.0000
     13 H5         -1.8010    2.1593   -0.2541 H         1 <0>         0.0000
     14 C5          1.6337    0.8312    1.0497 C.2       1 <0>         0.7800
     15 C6         -2.4844   -1.0854    0.0223 C.3       1 <0>         0.0000
     16 H6         -2.0082   -1.7214   -0.7286 H         1 <0>         0.0000
     17 H7         -3.1340   -0.3686   -0.4893 H         1 <0>         0.0000
     18 H8         -3.1236   -1.7232    0.6418 H         1 <0>         0.0000
     19 C7          3.0391   -0.6785   -0.3231 C.3       1 <0>         0.3000
     20 H9          2.8756   -1.7347   -0.5599 H         1 <0>         0.0000
     21 H10         3.7755   -0.5803    0.4785 H         1 <0>         0.0000
     22 H11         3.4116   -0.1767   -1.2208 H         1 <0>         0.0000
@<TRIPOS>BOND
     1    1    5 1
     2    1   14 1
     3    2    9 2
     4    3   14 2
     5    4    9 am
     6    4   14 am
     7    4   19 1
     8    5    6 1
     9    5    9 1
    10    5   10 1
    11    6    7 1
    12    6    8 1
    13    6   15 1
    14   10   11 1
    15   10   12 1
    16   10   13 1
    17   15   16 1
    18   15   17 1
    19   15   18 1
    20   19   20 1
    21   19   21 1
    22   19   22 1
