@<TRIPOS>MOLECULE
DB00147
   21    21     0     0     0
SMALL
USER_CHARGES

@<TRIPOS>ATOM
      1 O1          1.8789   -1.8315   -0.0831 O.3       1 <0>        -0.5320
      2 H1          2.8107   -1.6251    0.0888 H         1 <0>         0.4500
      3 O2         -3.2063    1.5128    0.1868 O.3       1 <0>        -0.6800
      4 H2         -4.1702    1.3823    0.1938 H         1 <0>         0.4000
      5 O3         -0.4748   -3.1359    0.5729 O.2       1 <0>        -0.5700
      6 N1          0.8913    1.6889    0.0073 N.ar      1 <0>        -0.6200
      7 C1         -1.1104    0.3108   -0.0147 C.ar      1 <0>        -0.1440
      8 C2         -0.2921   -0.8328   -0.0217 C.ar      1 <0>         0.0860
      9 C3          1.1042   -0.7073   -0.0198 C.ar      1 <0>         0.0820
     10 C4          1.6571    0.5723   -0.0021 C.ar      1 <0>         0.1660
     11 C5         -2.6135    0.2378   -0.0175 C.3       1 <0>         0.4240
     12 H3         -2.9625   -0.1442   -0.9825 H         1 <0>         0.0000
     13 H4         -2.9585   -0.4178    0.7881 H         1 <0>         0.0000
     14 C6         -0.4529    1.5356   -0.0022 C.ar      1 <0>         0.1600
     15 H5         -1.0036    2.4734    0.0028 H         1 <0>         0.1500
     16 C7          3.1387    0.8047   -0.0132 C.3       1 <0>         0.1440
     17 H6          3.3673    1.8766   -0.0199 H         1 <0>         0.0000
     18 H7          3.5881    0.3610   -0.9071 H         1 <0>         0.0000
     19 H8          3.5989    0.3705    0.8801 H         1 <0>         0.0000
     20 C8         -0.9236   -2.1711   -0.0372 C.2       1 <0>         0.4240
     21 H9         -1.8667   -2.2611   -0.5999 H         1 <0>         0.0600
@<TRIPOS>BOND
     1    1    2 1
     2    1    9 1
     3    3    4 1
     4    3   11 1
     5    5   20 2
     6    6   10 ar
     7    6   14 ar
     8    7    8 ar
     9    7   11 1
    10    7   14 ar
    11    8    9 ar
    12    8   20 1
    13    9   10 ar
    14   10   16 1
    15   11   12 1
    16   11   13 1
    17   14   15 1
    18   16   17 1
    19   16   18 1
    20   16   19 1
    21   20   21 1
