@<TRIPOS>MOLECULE
DB00586
   30    31     0     0     0
SMALL
USER_CHARGES

@<TRIPOS>ATOM
      1 Cl1         1.0171    0.8713   -2.3368 Cl        1 <0>        -0.1770
      2 Cl2         2.1017   -1.3351    2.5747 Cl        1 <0>        -0.1770
      3 O1         -0.6565   -2.9869   -0.4567 O.3       1 <0>        -0.6500
      4 H1         -0.3227   -3.4096   -1.2780 H         1 <0>         0.5000
      5 O2         -2.1887   -2.4159   -1.9918 O.2       1 <0>        -0.5700
      6 N1          0.2364   -0.4000    0.4263 N.pl3     1 <0>        -0.6000
      7 H2          0.0766   -1.3584    0.7311 H         1 <0>         0.4000
      8 C1         -2.1996   -0.1325    0.2609 C.ar      1 <0>        -0.1440
      9 C2         -0.9030    0.4275    0.3558 C.ar      1 <0>         0.1000
     10 C3         -2.4416   -1.6236    0.2994 C.3       1 <0>         0.2040
     11 H3         -3.5127   -1.8585    0.2643 H         1 <0>         0.0000
     12 H4         -2.0913   -2.0267    1.2573 H         1 <0>         0.0000
     13 C4          1.5994   -0.1324    0.1657 C.ar      1 <0>         0.1000
     14 C5         -3.3166    0.7181    0.1528 C.ar      1 <0>        -0.1500
     15 H5         -4.3201    0.3035    0.0794 H         1 <0>         0.1500
     16 C6         -0.7786    1.8286    0.3411 C.ar      1 <0>        -0.1500
     17 H6          0.2001    2.2928    0.4269 H         1 <0>         0.1500
     18 C7         -3.1636    2.1040    0.1359 C.ar      1 <0>        -0.1500
     19 H7         -4.0354    2.7467    0.0503 H         1 <0>         0.1500
     20 C8         -1.8954    2.6589    0.2338 C.ar      1 <0>        -0.1500
     21 H8         -1.7692    3.7384    0.2250 H         1 <0>         0.1500
     22 C9          2.0619    0.5025   -1.0044 C.ar      1 <0>         0.1770
     23 C10         2.5660   -0.5104    1.1227 C.ar      1 <0>         0.1770
     24 C11        -1.7948   -2.3631   -0.8395 C.2       1 <0>         0.6590
     25 C12         3.4245    0.7826   -1.1822 C.ar      1 <0>        -0.1500
     26 H9          3.7716    1.2673   -2.0925 H         1 <0>         0.1500
     27 C13         3.9246   -0.2313    0.9427 C.ar      1 <0>        -0.1500
     28 H10         4.6532   -0.5233    1.6954 H         1 <0>         0.1500
     29 C14         4.3505    0.4243   -0.2075 C.ar      1 <0>        -0.1500
     30 H11         5.4062    0.6412   -0.3519 H         1 <0>         0.1500
@<TRIPOS>BOND
     1    1   22 1
     2    2   23 1
     3    3    4 1
     4    3   24 1
     5    5   24 2
     6    6    7 1
     7    6    9 1
     8    6   13 1
     9    8    9 ar
    10    8   10 1
    11    8   14 ar
    12    9   16 ar
    13   10   11 1
    14   10   12 1
    15   10   24 1
    16   13   22 ar
    17   13   23 ar
    18   14   15 1
    19   14   18 ar
    20   16   17 1
    21   16   20 ar
    22   18   19 1
    23   18   20 ar
    24   20   21 1
    25   22   25 ar
    26   23   27 ar
    27   25   26 1
    28   25   29 ar
    29   27   28 1
    30   27   29 ar
    31   29   30 1
