@<TRIPOS>MOLECULE
DB00261
   23    25     0     0     0
SMALL
USER_CHARGES

@<TRIPOS>ATOM
      1 C1         -1.3454   -0.9163   -0.0007 C.2       1 <0>         0.5600
      2 N1         -1.4454    0.4353   -0.0008 N.pl3     1 <0>        -0.7880
      3 C2          0.9824    0.5130   -0.0008 C.ar      1 <0>        -0.1440
      4 N2         -0.2779   -1.6291   -0.0009 N.2       1 <0>        -0.6290
      5 C3          0.9312   -0.9021   -0.0014 C.ar      1 <0>         0.1790
      6 C4         -0.3077    1.3093   -0.0018 C.3       1 <0>         0.5130
      7 C5          2.2370    1.1563    0.0009 C.ar      1 <0>         0.1770
      8 C6          3.4179    0.3969    0.0019 C.ar      1 <0>         0.1770
      9 C7          2.1194   -1.6384   -0.0015 C.ar      1 <0>        -0.1500
     10 C8          3.3560   -0.9976    0.0002 C.ar      1 <0>        -0.1500
     11 Cl1         2.3108    2.8913    0.0026 Cl        1 <0>        -0.1770
     12 Cl2         4.9882    1.1206    0.0043 Cl        1 <0>        -0.1770
     13 C9         -2.8239    0.8738   -0.0008 C.3       1 <0>         0.4300
     14 N3         -2.5809   -1.4601    0.0013 N.am      1 <0>        -0.4900
     15 C10        -3.5442   -0.4801    0.0026 C.2       1 <0>         0.5690
     16 O1         -4.7527   -0.6518    0.0044 O.2       1 <0>        -0.5700
     17 H1         -0.3451    1.9452    0.8902 H         1 <0>         0.0000
     18 H2         -0.3437    1.9428   -0.8958 H         1 <0>         0.0000
     19 H3          2.0735   -2.7252   -0.0032 H         1 <0>         0.1500
     20 H4          4.2641   -1.5940   -0.0002 H         1 <0>         0.1500
     21 H5         -3.0757    1.4288   -0.9074 H         1 <0>         0.0000
     22 H6         -3.0742    1.4324    0.9036 H         1 <0>         0.0000
     23 H7         -2.7637   -2.4509    0.0034 H         1 <0>         0.3700
@<TRIPOS>BOND
     1    1    2 1
     2    1    4 2
     3    1   14 1
     4    2    6 1
     5    2   13 1
     6    3    5 ar
     7    3    6 1
     8    3    7 ar
     9    4    5 1
    10    5    9 ar
    11    6   17 1
    12    6   18 1
    13    7    8 ar
    14    7   11 1
    15    8   10 ar
    16    8   12 1
    17    9   10 ar
    18    9   19 1
    19   10   20 1
    20   13   15 1
    21   13   21 1
    22   13   22 1
    23   14   15 am
    24   14   23 1
    25   15   16 2
