@<TRIPOS>MOLECULE
DB00336
   20    20     0     0     0
SMALL
USER_CHARGES

@<TRIPOS>ATOM
      1 O1          2.0769    0.8943   -0.0008 O.3       1 <0>        -0.2800
      2 O2          5.4774    0.2290    0.0188 O.2       1 <0>        -0.5200
      3 O3          4.3675    2.1327    0.0162 O.2       1 <0>        -0.5200
      4 O4         -3.6972   -1.7246    0.0290 O.2       1 <0>        -0.5700
      5 N1          4.4359    0.8968    0.0132 N.pl3     1 <0>         0.9600
      6 N2         -1.2946   -0.3058   -0.0069 N.2       1 <0>        -0.5120
      7 N3         -2.5205    0.2836   -0.0073 N.am      1 <0>        -0.3680
      8 H1         -2.5981    1.2921   -0.0202 H         1 <0>         0.3700
      9 N4         -4.8057    0.2392    0.0064 N.am      1 <0>        -0.8000
     10 H2         -5.6814   -0.2685    0.0210 H         1 <0>         0.3700
     11 H3         -4.8404    1.2465   -0.0095 H         1 <0>         0.3700
     12 C1          1.0490   -0.0070   -0.0085 C.2       1 <0>         0.0550
     13 C2          1.5511   -1.2972   -0.0126 C.2       1 <0>        -0.1500
     14 H4          0.9583   -2.2029   -0.0189 H         1 <0>         0.1500
     15 C3          3.2190    0.1610    0.0023 C.2       1 <0>         0.2200
     16 C4          2.9637   -1.1881   -0.0052 C.2       1 <0>        -0.1500
     17 H5          3.6905   -1.9881   -0.0042 H         1 <0>         0.1500
     18 C5         -0.2883    0.5040   -0.0099 C.2       1 <0>         0.4750
     19 H6         -0.4094    1.6023   -0.0131 H         1 <0>         0.0600
     20 C6         -3.6537   -0.4992    0.0102 C.2       1 <0>         0.6900
@<TRIPOS>BOND
     1    1   12 1
     2    1   15 1
     3    2    5 2
     4    3    5 2
     5    4   20 2
     6    5   15 1
     7    6    7 1
     8    6   18 2
     9    7    8 1
    10    7   20 am
    11    9   10 1
    12    9   11 1
    13    9   20 am
    14   12   13 2
    15   12   18 1
    16   13   14 1
    17   13   16 1
    18   15   16 2
    19   16   17 1
    20   18   19 1
