@<TRIPOS>MOLECULE
DB00435
    3     2     0     0     0
SMALL
USER_CHARGES

@<TRIPOS>ATOM
      1 O1          1.0139   -0.1473   -0.0000 O.2       1 <0>        -0.1620
      2 N1         -0.1136    0.3583   -0.0000 N.2       1 <0>        -0.3250
      3 H1         -0.9003   -0.2110   -0.0000 H         1 <0>         0.4870
@<TRIPOS>BOND
     1    1    2 2
     2    2    3 1
