@<TRIPOS>MOLECULE
DB00166
   26    26     0     0     0
SMALL
USER_CHARGES

@<TRIPOS>ATOM
      1 C1         -3.2089    0.6711   -0.0115 C.3       1 <0>         0.0000
      2 H1         -3.1668    1.2160    0.9422 H         1 <0>         0.0000
      3 H2         -3.1781    1.4328   -0.8000 H         1 <0>         0.0000
      4 S1         -2.3287   -1.6455    1.0136 S.3       1 <0>        -0.2300
      5 C2         -4.5116   -0.1126   -0.1114 C.3       1 <0>         0.2300
      6 H3         -4.6638   -0.4935   -1.1262 H         1 <0>         0.0000
      7 H4         -5.3715    0.5101    0.1534 H         1 <0>         0.0000
      8 S2         -4.3734   -1.5084    1.0316 S.3       1 <0>        -0.2300
      9 C3         -2.0137   -0.2799   -0.1518 C.3       1 <0>         0.2300
     10 H5         -1.9961   -0.6988   -1.1657 H         1 <0>         0.0000
     11 C4         -0.6882    0.4398    0.1283 C.3       1 <0>         0.0000
     12 H6         -0.6310    1.3258   -0.5173 H         1 <0>         0.0000
     13 H7         -0.6654    0.8092    1.1623 H         1 <0>         0.0000
     14 C5          0.5471   -0.4296   -0.1347 C.3       1 <0>         0.0000
     15 H8          0.5487   -1.3027    0.5268 H         1 <0>         0.0000
     16 H9          0.5199   -0.8039   -1.1651 H         1 <0>         0.0000
     17 C6          1.8372    0.3623    0.0859 C.3       1 <0>         0.0000
     18 H10         1.8598    0.7555    1.1106 H         1 <0>         0.0000
     19 H11         1.8574    1.2316   -0.5846 H         1 <0>         0.0000
     20 C7          3.0705   -0.5043   -0.1579 C.3       1 <0>         0.0610
     21 H12         3.0719   -0.8715   -1.1904 H         1 <0>         0.0000
     22 H13         3.0611   -1.3603    0.5257 H         1 <0>         0.0000
     23 C8          4.3439    0.2651    0.0688 C.2       1 <0>         0.6590
     24 O1          4.4561    1.4483    0.3421 O.2       1 <0>        -0.5700
     25 O2          5.4293   -0.5235   -0.0703 O.3       1 <0>        -0.6500
     26 H14         6.1943    0.0670    0.0956 H         1 <0>         0.5000
@<TRIPOS>BOND
     1    1    2 1
     2    1    3 1
     3    1    5 1
     4    1    9 1
     5    4    8 1
     6    4    9 1
     7    5    6 1
     8    5    7 1
     9    5    8 1
    10    9   10 1
    11    9   11 1
    12   11   12 1
    13   11   13 1
    14   11   14 1
    15   14   15 1
    16   14   16 1
    17   14   17 1
    18   17   18 1
    19   17   19 1
    20   17   20 1
    21   20   21 1
    22   20   22 1
    23   20   23 1
    24   23   24 2
    25   23   25 1
    26   25   26 1
