@<TRIPOS>MOLECULE
DB00339
   14    14     0     0     0
SMALL
USER_CHARGES

@<TRIPOS>ATOM
      1 O1         -1.8939    1.9530   -0.0005 O.2       1 <0>        -0.5700
      2 N1          0.7446    1.2726    0.0006 N.ar      1 <0>        -0.6200
      3 N2          1.4596   -1.4550   -0.0009 N.ar      1 <0>        -0.6200
      4 N3         -2.6266   -0.1756   -0.0002 N.am      1 <0>        -0.8000
      5 H1         -3.5732    0.1866   -0.0022 H         1 <0>         0.3700
      6 H2         -2.5295   -1.1807    0.0023 H         1 <0>         0.3700
      7 C1         -0.1976    0.2918    0.0006 C.ar      1 <0>         0.3960
      8 C2          0.1656   -1.0465    0.0003 C.ar      1 <0>         0.1600
      9 H3         -0.5487   -1.8585   -0.0002 H         1 <0>         0.1500
     10 C3         -1.6150    0.7560    0.0006 C.2       1 <0>         0.5440
     11 C4          2.0333    0.8649    0.0003 C.ar      1 <0>         0.1600
     12 H4          2.7784    1.6514    0.0002 H         1 <0>         0.1500
     13 C5          2.3834   -0.4703   -0.0001 C.ar      1 <0>         0.1600
     14 H5          3.4195   -0.7895   -0.0007 H         1 <0>         0.1500
@<TRIPOS>BOND
     1    1   10 2
     2    2    7 ar
     3    2   11 ar
     4    3    8 ar
     5    3   13 ar
     6    4    5 1
     7    4    6 1
     8    4   10 am
     9    7    8 ar
    10    7   10 1
    11    8    9 1
    12   11   12 1
    13   11   13 ar
    14   13   14 1
