@<TRIPOS>MOLECULE
DB00184
   26    27     0     0     0
SMALL
USER_CHARGES

@<TRIPOS>ATOM
      1 N1         -1.2043    0.7023    0.3536 N.3       1 <0>        -0.8100
      2 N2          3.3376   -0.0230   -1.2229 N.ar      1 <0>        -0.6200
      3 C1         -0.4045   -0.0948   -0.5964 C.3       1 <0>         0.4140
      4 H1         -0.5956    0.2543   -1.6211 H         1 <0>         0.0000
      5 C2         -0.9722   -1.5189   -0.4700 C.3       1 <0>         0.0000
      6 H2         -1.2755   -1.8848   -1.4582 H         1 <0>         0.0000
      7 H3         -0.2688   -2.2474   -0.0509 H         1 <0>         0.0000
      8 C3         -2.1947   -1.3876    0.4289 C.3       1 <0>         0.0000
      9 H4         -1.9360   -1.6824    1.4524 H         1 <0>         0.0000
     10 H5         -3.0240   -2.0187    0.0937 H         1 <0>         0.0000
     11 C4         -2.5325    0.0894    0.3761 C.3       1 <0>         0.2700
     12 H6         -3.1168    0.4006    1.2477 H         1 <0>         0.0000
     13 H7         -3.1037    0.3152   -0.5335 H         1 <0>         0.0000
     14 C5          1.0800   -0.0568   -0.3223 C.ar      1 <0>        -0.1440
     15 C6         -1.2617    2.1173    0.0069 C.3       1 <0>         0.2700
     16 H8         -1.8567    2.6654    0.7455 H         1 <0>         0.0000
     17 H9         -1.7024    2.2878   -0.9813 H         1 <0>         0.0000
     18 H10        -0.2604    2.5612    0.0167 H         1 <0>         0.0000
     19 C7          1.6086   -0.0824    0.9732 C.ar      1 <0>        -0.1500
     20 H11         0.9457   -0.1090    1.8353 H         1 <0>         0.1500
     21 C8          1.9931   -0.0334   -1.3746 C.ar      1 <0>         0.1600
     22 H12         1.6612   -0.0237   -2.4092 H         1 <0>         0.1500
     23 C9          2.9871   -0.0712    1.1639 C.ar      1 <0>        -0.1500
     24 H13         3.4121   -0.0864    2.1616 H         1 <0>         0.1500
     25 C10         3.8012   -0.0414    0.0443 C.ar      1 <0>         0.1600
     26 H14         4.8832   -0.0314    0.1407 H         1 <0>         0.1500
@<TRIPOS>BOND
     1    1    3 1
     2    1   11 1
     3    1   15 1
     4    2   21 ar
     5    2   25 ar
     6    3    4 1
     7    3    5 1
     8    3   14 1
     9    5    6 1
    10    5    7 1
    11    5    8 1
    12    8    9 1
    13    8   10 1
    14    8   11 1
    15   11   12 1
    16   11   13 1
    17   14   19 ar
    18   14   21 ar
    19   15   16 1
    20   15   17 1
    21   15   18 1
    22   19   20 1
    23   19   23 ar
    24   21   22 1
    25   23   24 1
    26   23   25 ar
    27   25   26 1
