@<TRIPOS>MOLECULE
DB00856
   24    24     0     0     0
SMALL
USER_CHARGES

@<TRIPOS>ATOM
      1 Cl1        -5.7941   -0.6576    0.0274 Cl        1 <0>        -0.1770
      2 O1         -0.0951    0.7847    0.0235 O.3       1 <0>        -0.3630
      3 O2          2.5655    1.1920   -1.1865 O.3       1 <0>        -0.6800
      4 H1          3.5138    1.4252   -1.1241 H         1 <0>         0.4000
      5 O3          4.6492    0.2243    0.2531 O.3       1 <0>        -0.6800
      6 H2          5.3629   -0.4170    0.4211 H         1 <0>         0.4000
      7 C1          2.2897    0.4903    0.0356 C.3       1 <0>         0.2800
      8 H3          2.2843    1.2465    0.8293 H         1 <0>         0.0000
      9 C2          0.9324   -0.2084   -0.0568 C.3       1 <0>         0.2800
     10 H4          0.8266   -0.9073    0.7815 H         1 <0>         0.0000
     11 H5          0.8539   -0.7387   -1.0132 H         1 <0>         0.0000
     12 C3          3.4227   -0.5081    0.2559 C.3       1 <0>         0.2800
     13 H6          3.4710   -1.2372   -0.5591 H         1 <0>         0.0000
     14 H7          3.3189   -1.0278    1.2126 H         1 <0>         0.0000
     15 C4         -1.3903    0.3459    0.0070 C.ar      1 <0>         0.0820
     16 C5         -1.8089   -0.9791   -0.1312 C.ar      1 <0>        -0.1500
     17 H8         -1.1028   -1.7948   -0.2479 H         1 <0>         0.1500
     18 C6         -2.3475    1.3573    0.1462 C.ar      1 <0>        -0.1500
     19 H9         -2.0258    2.3914    0.2510 H         1 <0>         0.1500
     20 C7         -3.1736   -1.2884   -0.1252 C.ar      1 <0>        -0.1500
     21 H10        -3.4892   -2.3230   -0.2325 H         1 <0>         0.1500
     22 C8         -3.7095    1.0522    0.1518 C.ar      1 <0>        -0.1500
     23 H11        -4.4372    1.8498    0.2627 H         1 <0>         0.1500
     24 C9         -4.1170   -0.2720    0.0176 C.ar      1 <0>         0.1770
@<TRIPOS>BOND
     1    1   24 1
     2    2    9 1
     3    2   15 1
     4    3    4 1
     5    3    7 1
     6    5    6 1
     7    5   12 1
     8    7    8 1
     9    7    9 1
    10    7   12 1
    11    9   10 1
    12    9   11 1
    13   12   13 1
    14   12   14 1
    15   15   16 ar
    16   15   18 ar
    17   16   17 1
    18   16   20 ar
    19   18   19 1
    20   18   22 ar
    21   20   21 1
    22   20   24 ar
    23   22   23 1
    24   22   24 ar
