@<TRIPOS>MOLECULE
DB00529
   10     9     0     0     0
SMALL
USER_CHARGES

@<TRIPOS>ATOM
      1 P1          0.5060    0.0409   -0.2371 P.3       1 <0>         1.3490
      2 O1          1.2694   -1.2953    0.2547 O.3       1 <0>        -0.7710
      3 H1          2.1641   -1.4074   -0.1192 H         1 <0>         0.5000
      4 O2          1.2351    1.1374    0.6985 O.3       1 <0>        -0.7710
      5 H2          2.1242    1.3972    0.3942 H         1 <0>         0.5000
      6 O3          0.8151    0.3077   -1.6813 O.2       1 <0>        -0.7000
      7 O4         -2.2266    0.1878   -0.6919 O.3       1 <0>        -0.6500
      8 H3         -3.0639    0.0641   -0.1974 H         1 <0>         0.5000
      9 O5         -1.5789   -0.3670    1.3599 O.2       1 <0>        -0.5700
     10 C1         -1.2446   -0.0654    0.2196 C.2       1 <0>         0.6130
@<TRIPOS>BOND
     1    1    2 1
     2    1    4 1
     3    1    6 2
     4    1   10 1
     5    2    3 1
     6    4    5 1
     7    7    8 1
     8    7   10 1
     9    9   10 2
