@<TRIPOS>MOLECULE
DB00548
   29    28     0     0     0
SMALL
USER_CHARGES

@<TRIPOS>ATOM
      1 O1          6.1501    0.3823    0.0330 O.3       1 <0>        -0.6500
      2 H1          6.8892   -0.2615    0.0322 H         1 <0>         0.5000
      3 O2         -6.1507    0.3828    0.0092 O.3       1 <0>        -0.6500
      4 H2         -6.8896   -0.2606    0.0110 H         1 <0>         0.5000
      5 O3          5.0958   -1.5890   -0.0290 O.2       1 <0>        -0.5700
      6 O4         -5.0953   -1.5896    0.0027 O.2       1 <0>        -0.5700
      7 C1         -0.0005   -0.3714    0.0038 C.3       1 <0>         0.0000
      8 H3          0.0009   -1.0136    0.8938 H         1 <0>         0.0000
      9 H4         -0.0015   -1.0310   -0.8717 H         1 <0>         0.0000
     10 C2          1.2637    0.4907   -0.0064 C.3       1 <0>         0.0000
     11 H5          1.2687    1.1471    0.8720 H         1 <0>         0.0000
     12 H6          1.2613    1.1368   -0.8932 H         1 <0>         0.0000
     13 C3         -1.2634    0.4909   -0.0031 C.3       1 <0>         0.0000
     14 H7         -1.2648    1.1351   -0.8910 H         1 <0>         0.0000
     15 H8         -1.2654    1.1495    0.8734 H         1 <0>         0.0000
     16 C4          2.5245   -0.3753   -0.0076 C.3       1 <0>         0.0000
     17 H9          2.5225   -1.0296   -0.8889 H         1 <0>         0.0000
     18 H10         2.5218   -1.0321    0.8717 H         1 <0>         0.0000
     19 C5         -2.5236   -0.3750    0.0039 C.3       1 <0>         0.0000
     20 H11        -2.5212   -1.0240    0.8885 H         1 <0>         0.0000
     21 H12        -2.5216   -1.0376   -0.8718 H         1 <0>         0.0000
     22 C6          3.7898    0.4792   -0.0051 C.3       1 <0>         0.0610
     23 H13         3.8069    1.1150    0.8872 H         1 <0>         0.0000
     24 H14         3.8123    1.1155   -0.8976 H         1 <0>         0.0000
     25 C7         -3.7906    0.4793   -0.0034 C.3       1 <0>         0.0610
     26 H15        -3.8100    1.1079   -0.8998 H         1 <0>         0.0000
     27 H16        -3.8095    1.1204    0.8845 H         1 <0>         0.0000
     28 C8          5.0317   -0.3709   -0.0015 C.2       1 <0>         0.6590
     29 C9         -5.0317   -0.3716    0.0031 C.2       1 <0>         0.6590
@<TRIPOS>BOND
     1    1    2 1
     2    1   28 1
     3    3    4 1
     4    3   29 1
     5    5   28 2
     6    6   29 2
     7    7    8 1
     8    7    9 1
     9    7   10 1
    10    7   13 1
    11   10   11 1
    12   10   12 1
    13   10   16 1
    14   13   14 1
    15   13   15 1
    16   13   19 1
    17   16   17 1
    18   16   18 1
    19   16   22 1
    20   19   20 1
    21   19   21 1
    22   19   25 1
    23   22   23 1
    24   22   24 1
    25   22   28 1
    26   25   26 1
    27   25   27 1
    28   25   29 1
