@<TRIPOS>MOLECULE
DB00609
   21    21     0     0     0
SMALL
USER_CHARGES

@<TRIPOS>ATOM
      1 S1         -3.0385    2.1596   -1.2035 S.2       1 <0>        -0.3800
      2 N1          0.9884   -1.2683   -0.0810 N.ar      1 <0>        -0.6200
      3 N2         -3.7420    0.2915    0.5169 N.pl3     1 <0>        -0.8000
      4 H1         -4.6569    0.7284    0.5009 H         1 <0>         0.3700
      5 H2         -3.6227   -0.5067    1.1300 H         1 <0>         0.3700
      6 C1          2.2527    0.8387    0.1414 C.3       1 <0>         0.1440
      7 H3          2.2321    1.3651    1.1024 H         1 <0>         0.0000
      8 H4          2.3144    1.5965   -0.6493 H         1 <0>         0.0000
      9 C2          0.9535    0.0843   -0.0171 C.ar      1 <0>         0.1660
     10 C3         -0.2419    0.7985   -0.0735 C.ar      1 <0>        -0.1500
     11 H5         -0.2304    1.8815   -0.0035 H         1 <0>         0.1500
     12 C4         -1.4408    0.0927   -0.2054 C.ar      1 <0>         0.0860
     13 C5          3.5053   -0.0258    0.0804 C.3       1 <0>         0.0000
     14 H6          3.5134   -0.7713    0.8834 H         1 <0>         0.0000
     15 H7          4.3990    0.5969    0.1889 H         1 <0>         0.0000
     16 H8          3.5760   -0.5545   -0.8767 H         1 <0>         0.0000
     17 C6         -1.4158   -1.2992   -0.2790 C.ar      1 <0>        -0.1500
     18 H9         -2.3196   -1.8849   -0.4036 H         1 <0>         0.1500
     19 C7         -0.1852   -1.9240   -0.2139 C.ar      1 <0>         0.1600
     20 H10        -0.1029   -3.0054   -0.2716 H         1 <0>         0.1500
     21 C8         -2.7381    0.8064   -0.2660 C.2       1 <0>         0.3540
@<TRIPOS>BOND
     1    1   21 2
     2    2    9 ar
     3    2   19 ar
     4    3    4 1
     5    3    5 1
     6    3   21 1
     7    6    7 1
     8    6    8 1
     9    6    9 1
    10    6   13 1
    11    9   10 ar
    12   10   11 1
    13   10   12 ar
    14   12   17 ar
    15   12   21 1
    16   13   14 1
    17   13   15 1
    18   13   16 1
    19   17   18 1
    20   17   19 ar
    21   19   20 1
