@<TRIPOS>MOLECULE
DB00744
   28    29     0     0     0
SMALL
USER_CHARGES

@<TRIPOS>ATOM
      1 S1          0.8099   -1.6561   -1.0170 S.3       1 <0>        -0.0800
      2 O1         -2.9297   -0.4094   -1.8351 O.3       1 <0>        -0.4360
      3 H1         -3.7411   -0.9043   -1.6141 H         1 <0>         0.4000
      4 O2         -2.4246    1.6540    1.0075 O.2       1 <0>        -0.5700
      5 N1         -2.4597   -0.0537   -0.5508 N.am      1 <0>        -0.3250
      6 N2         -3.4013    1.9888   -0.9971 N.am      1 <0>        -0.8000
      7 H2         -3.6751    2.9293   -0.7552 H         1 <0>         0.3700
      8 H3         -3.5992    1.6039   -1.9115 H         1 <0>         0.3700
      9 C1         -1.6793   -1.1066    0.1135 C.3       1 <0>         0.4800
     10 H4         -1.8717   -2.0316   -0.4489 H         1 <0>         0.0000
     11 C2         -0.2104   -0.7692    0.0325 C.2       1 <0>        -0.1400
     12 C3          1.8904    0.2397    0.3592 C.ar      1 <0>         0.0000
     13 C4          0.4999    0.2034    0.7071 C.2       1 <0>        -0.1500
     14 H5          0.0452    0.8805    1.4204 H         1 <0>         0.1500
     15 C5          2.2007   -0.7384   -0.5866 C.ar      1 <0>         0.0400
     16 C6         -2.1380   -1.3783    1.5459 C.3       1 <0>         0.0000
     17 H6         -1.9663   -0.5293    2.2134 H         1 <0>         0.0000
     18 H7         -1.5995   -2.2355    1.9670 H         1 <0>         0.0000
     19 H8         -3.2092   -1.6065    1.5706 H         1 <0>         0.0000
     20 C7          2.9304    1.0842    0.8168 C.ar      1 <0>        -0.1500
     21 H9          2.7186    1.8569    1.5522 H         1 <0>         0.1500
     22 C8          3.5096   -0.8954   -1.0825 C.ar      1 <0>        -0.1500
     23 H10         3.7374   -1.6611   -1.8188 H         1 <0>         0.1500
     24 C9          4.2301    0.9345    0.3268 C.ar      1 <0>        -0.1500
     25 H11         5.0207    1.5896    0.6839 H         1 <0>         0.1500
     26 C10         4.5146   -0.0462   -0.6134 C.ar      1 <0>        -0.1500
     27 H12         5.5284   -0.1557   -0.9908 H         1 <0>         0.1500
     28 C11        -2.7309    1.2122   -0.0952 C.2       1 <0>         0.6900
@<TRIPOS>BOND
     1    1   11 1
     2    1   15 1
     3    2    3 1
     4    2    5 1
     5    4   28 2
     6    5    9 1
     7    5   28 am
     8    6    7 1
     9    6    8 1
    10    6   28 am
    11    9   10 1
    12    9   11 1
    13    9   16 1
    14   11   13 2
    15   12   13 1
    16   12   15 ar
    17   12   20 ar
    18   13   14 1
    19   15   22 ar
    20   16   17 1
    21   16   18 1
    22   16   19 1
    23   20   21 1
    24   20   24 ar
    25   22   23 1
    26   22   26 ar
    27   24   25 1
    28   24   26 ar
    29   26   27 1
