@<TRIPOS>MOLECULE
DB00155
   25    24     0     0     0
SMALL
USER_CHARGES

@<TRIPOS>ATOM
      1 O1         -3.9586    1.3655    0.9184 O.3       1 <0>        -0.6500
      2 H1         -4.7807    1.7958    0.6006 H         1 <0>         0.5000
      3 O2         -4.4436    0.2217   -0.9409 O.2       1 <0>        -0.5700
      4 O3          3.8943    1.6502   -0.6828 O.2       1 <0>        -0.5700
      5 N1          2.5709   -0.0771    0.0719 N.am      1 <0>        -0.7300
      6 H2          2.5769   -0.9919    0.5000 H         1 <0>         0.3700
      7 N2         -2.5754   -1.7628   -0.1909 N.3       1 <0>        -0.9900
      8 H3         -1.6969   -2.2704   -0.1240 H         1 <0>         0.3600
      9 H4         -2.8144   -1.7080   -1.1825 H         1 <0>         0.3600
     10 N3          4.8380   -0.2004    0.2160 N.am      1 <0>        -0.8000
     11 H5          5.7624    0.1813    0.0680 H         1 <0>         0.3700
     12 H6          4.7520   -1.1100    0.6419 H         1 <0>         0.3700
     13 C1         -1.2165    0.3404   -0.2044 C.3       1 <0>         0.0000
     14 H7         -1.2788    0.3932   -1.2994 H         1 <0>         0.0000
     15 H8         -1.2395    1.3795    0.1490 H         1 <0>         0.0000
     16 C2          0.1201   -0.2911    0.2032 C.3       1 <0>         0.0000
     17 H9          0.2063   -1.3017   -0.2138 H         1 <0>         0.0000
     18 H10         0.1645   -0.3955    1.2941 H         1 <0>         0.0000
     19 C3         -2.4417   -0.4022    0.3532 C.3       1 <0>         0.3310
     20 H11        -2.3719   -0.4888    1.4445 H         1 <0>         0.0000
     21 C4          1.3075    0.5419   -0.2760 C.3       1 <0>         0.3000
     22 H12         1.2840    1.5428    0.1680 H         1 <0>         0.0000
     23 H13         1.2851    0.6584   -1.3654 H         1 <0>         0.0000
     24 C5         -3.7106    0.3848    0.0236 C.2       1 <0>         0.6590
     25 C6          3.7666    0.5443   -0.1722 C.2       1 <0>         0.6900
@<TRIPOS>BOND
     1    1    2 1
     2    1   24 1
     3    3   24 2
     4    4   25 2
     5    5    6 1
     6    5   21 1
     7    5   25 am
     8    7    8 1
     9    7    9 1
    10    7   19 1
    11   10   11 1
    12   10   12 1
    13   10   25 am
    14   13   14 1
    15   13   15 1
    16   13   16 1
    17   13   19 1
    18   16   17 1
    19   16   18 1
    20   16   21 1
    21   19   20 1
    22   19   24 1
    23   21   22 1
    24   21   23 1
