@<TRIPOS>MOLECULE
DB00794
   30    31     0     0     0
SMALL
USER_CHARGES

@<TRIPOS>ATOM
      1 O1          0.3728    0.1679   -2.4030 O.2       1 <0>        -0.5700
      2 O2          0.3805    0.1650    2.4034 O.2       1 <0>        -0.5700
      3 N1          1.8747    1.2968   -1.1921 N.am      1 <0>        -0.7300
      4 H1          2.1473    1.7467   -2.0576 H         1 <0>         0.3700
      5 N2          1.8800    1.2940    1.1879 N.am      1 <0>        -0.7300
      6 H2          2.1569    1.7421    2.0524 H         1 <0>         0.3700
      7 C1          0.3096   -0.2249   -0.0000 C.3       1 <0>         0.2650
      8 C2          0.7711   -1.7141   -0.0017 C.3       1 <0>         0.0000
      9 H3          0.3642   -2.2306    0.8784 H         1 <0>         0.0000
     10 H4          0.3695   -2.2266   -0.8856 H         1 <0>         0.0000
     11 C3         -1.2355   -0.0597    0.0026 C.ar      1 <0>        -0.1440
     12 C4          0.8381    0.4193   -1.2901 C.2       1 <0>         0.5690
     13 C5          0.8425    0.4183    1.2890 C.2       1 <0>         0.5690
     14 C6          2.6113    1.5592   -0.0035 C.3       1 <0>         0.6000
     15 H5          2.9109    2.6115   -0.0028 H         1 <0>         0.0000
     16 H6          3.5111    0.9368   -0.0064 H         1 <0>         0.0000
     17 C7          2.2818   -1.9405    0.0034 C.3       1 <0>         0.0000
     18 H7          2.7514   -1.5190    0.8957 H         1 <0>         0.0000
     19 H8          2.7585   -1.5110   -0.8824 H         1 <0>         0.0000
     20 H9          2.4936   -3.0155   -0.0004 H         1 <0>         0.0000
     21 C8         -2.1292   -1.1440   -0.0011 C.ar      1 <0>        -0.1500
     22 H10        -1.7783   -2.1716   -0.0040 H         1 <0>         0.1500
     23 C9         -1.7837    1.2414    0.0054 C.ar      1 <0>        -0.1500
     24 H11        -1.1353    2.1154    0.0084 H         1 <0>         0.1500
     25 C10        -3.5121   -0.9364   -0.0020 C.ar      1 <0>        -0.1500
     26 H12        -4.1859   -1.7889   -0.0058 H         1 <0>         0.1500
     27 C11        -3.1654    1.4455    0.0053 C.ar      1 <0>        -0.1500
     28 H13        -3.5647    2.4557    0.0074 H         1 <0>         0.1500
     29 C12        -4.0304    0.3554    0.0005 C.ar      1 <0>        -0.1500
     30 H14        -5.1052    0.5119   -0.0014 H         1 <0>         0.1500
@<TRIPOS>BOND
     1    1   12 2
     2    2   13 2
     3    3    4 1
     4    3   12 am
     5    3   14 1
     6    5    6 1
     7    5   13 am
     8    5   14 1
     9    7    8 1
    10    7   11 1
    11    7   12 1
    12    7   13 1
    13    8    9 1
    14    8   10 1
    15    8   17 1
    16   11   21 ar
    17   11   23 ar
    18   14   15 1
    19   14   16 1
    20   17   18 1
    21   17   19 1
    22   17   20 1
    23   21   22 1
    24   21   25 ar
    25   23   24 1
    26   23   27 ar
    27   25   26 1
    28   25   29 ar
    29   27   28 1
    30   27   29 ar
    31   29   30 1
