@<TRIPOS>MOLECULE
DB00697
   24    26     0     0     0
SMALL
USER_CHARGES

@<TRIPOS>ATOM
      1 Cl1         0.1439   -2.3979   -0.8995 Cl        1 <0>        -0.1770
      2 S1          3.6457    2.8072    0.4496 S.3       1 <0>         0.4410
      3 N1         -2.5442    0.9350   -0.5189 N.pl3     1 <0>        -0.8190
      4 H1         -2.4704    1.7385   -1.1234 H         1 <0>         0.4000
      5 N2         -0.2800    0.7429   -0.2453 N.pl3     1 <0>        -0.5500
      6 H2         -0.2364    1.7420   -0.4120 H         1 <0>         0.4000
      7 N3         -1.8396   -0.8032    0.7336 N.2       1 <0>        -0.6960
      8 N4          2.0867    2.3129    0.1678 N.2       1 <0>        -0.5100
      9 N5          4.4400    1.3510    0.4252 N.2       1 <0>        -0.5100
     10 C1         -3.7968    0.3747   -0.1070 C.3       1 <0>         0.3690
     11 H3         -4.3370    1.0645    0.5490 H         1 <0>         0.0000
     12 H4         -4.4288    0.1127   -0.9593 H         1 <0>         0.0000
     13 C2         -3.3264   -0.8676    0.6577 C.3       1 <0>         0.2460
     14 H5         -3.6225   -1.7852    0.1362 H         1 <0>         0.0000
     15 H6         -3.7501   -0.8936    1.6664 H         1 <0>         0.0000
     16 C3         -1.5106    0.2271    0.0026 C.2       1 <0>         0.5500
     17 C4          0.9793    0.1416   -0.1901 C.ar      1 <0>         0.1000
     18 C5          2.1220    0.9714    0.0445 C.ar      1 <0>         0.2890
     19 C6          3.5106    0.4109    0.1939 C.ar      1 <0>         0.2890
     20 C7          1.3072   -1.2323   -0.3397 C.ar      1 <0>         0.1770
     21 C8          3.7537   -0.9723    0.0915 C.ar      1 <0>        -0.1500
     22 H7          4.7459   -1.3950    0.1941 H         1 <0>         0.1500
     23 C9          2.6257   -1.7571   -0.1912 C.ar      1 <0>        -0.1500
     24 H8          2.7822   -2.8281   -0.3257 H         1 <0>         0.1500
@<TRIPOS>BOND
     1    1   20 1
     2    2    8 1
     3    2    9 1
     4    3    4 1
     5    3   10 1
     6    3   16 1
     7    5    6 1
     8    5   16 1
     9    5   17 1
    10    7   13 1
    11    7   16 2
    12    8   18 2
    13    9   19 2
    14   10   11 1
    15   10   12 1
    16   10   13 1
    17   13   14 1
    18   13   15 1
    19   17   18 ar
    20   17   20 ar
    21   18   19 ar
    22   19   21 ar
    23   20   23 ar
    24   21   22 1
    25   21   23 ar
    26   23   24 1
