@<TRIPOS>MOLECULE
DB00347
   19    19     0     0     0
SMALL
USER_CHARGES

@<TRIPOS>ATOM
      1 O1          0.3783   -0.0016    1.4583 O.3       1 <0>        -0.4300
      2 O2         -0.2907    0.0034   -1.9674 O.2       1 <0>        -0.5700
      3 O3         -1.7095   -0.0034    2.3604 O.2       1 <0>        -0.5700
      4 N1         -1.3692   -0.0003    0.0801 N.am      1 <0>        -0.4200
      5 C1          0.9368   -0.0003    0.1346 C.3       1 <0>         0.3410
      6 C2         -0.2897    0.0014   -0.7460 C.2       1 <0>         0.5690
      7 C3          1.7556   -1.2666   -0.0651 C.3       1 <0>         0.0000
      8 H1          1.1397   -2.1606    0.0876 H         1 <0>         0.0000
      9 H2          2.5736   -1.3197    0.6621 H         1 <0>         0.0000
     10 H3          2.1785   -1.3164   -1.0734 H         1 <0>         0.0000
     11 C4          1.7565    1.2655   -0.0615 C.3       1 <0>         0.0000
     12 H4          1.1411    2.1600    0.0933 H         1 <0>         0.0000
     13 H5          2.1801    1.3188   -1.0698 H         1 <0>         0.0000
     14 H6          2.5736    1.3173    0.6661 H         1 <0>         0.0000
     15 C5         -0.9851   -0.0020    1.3776 C.2       1 <0>         0.7800
     16 C6         -2.7367   -0.0005   -0.3832 C.3       1 <0>         0.3000
     17 H7         -2.8872   -0.8616   -1.0404 H         1 <0>         0.0000
     18 H8         -2.9081    0.9088   -0.9675 H         1 <0>         0.0000
     19 H9         -3.4376   -0.0423    0.4543 H         1 <0>         0.0000
@<TRIPOS>BOND
     1    1    5 1
     2    1   15 1
     3    2    6 2
     4    3   15 2
     5    4    6 am
     6    4   15 am
     7    4   16 1
     8    5    6 1
     9    5    7 1
    10    5   11 1
    11    7    8 1
    12    7    9 1
    13    7   10 1
    14   11   12 1
    15   11   13 1
    16   11   14 1
    17   16   17 1
    18   16   18 1
    19   16   19 1
