@<TRIPOS>MOLECULE
DB00945
   21    21     0     0     0
SMALL
USER_CHARGES

@<TRIPOS>ATOM
      1 O1         -1.1924   -0.5181   -0.6709 O.3       1 <0>        -0.2320
      2 O2          1.0082    3.0313    0.0242 O.3       1 <0>        -0.6500
      3 H1          0.4421    3.8286   -0.0495 H         1 <0>         0.5000
      4 O3         -0.9922    2.1855   -0.5002 O.2       1 <0>        -0.5700
      5 O4         -1.6247   -0.5076    1.6284 O.2       1 <0>        -0.5700
      6 C1          0.1716   -0.5028   -0.3633 C.ar      1 <0>         0.0820
      7 C2          0.8717    0.6965   -0.1605 C.ar      1 <0>         0.0860
      8 C3          0.8240   -1.7400   -0.3290 C.ar      1 <0>        -0.1500
      9 H2          0.2700   -2.6578   -0.5055 H         1 <0>         0.1500
     10 C4          2.2468    0.6252    0.1098 C.ar      1 <0>        -0.1500
     11 H3          2.8304    1.5273    0.2790 H         1 <0>         0.1500
     12 C5          2.1897   -1.7910   -0.0595 C.ar      1 <0>        -0.1500
     13 H4          2.7018   -2.7493   -0.0228 H         1 <0>         0.1500
     14 C6          2.9000   -0.6114    0.1620 C.ar      1 <0>        -0.1500
     15 H5          3.9659   -0.6516    0.3730 H         1 <0>         0.1500
     16 C7          0.1844    1.9956   -0.2364 C.2       1 <0>         0.6340
     17 C8         -1.9968   -0.4833    0.4625 C.2       1 <0>         0.6590
     18 C9         -3.4340   -0.4310    0.0348 C.3       1 <0>         0.0610
     19 H6         -3.5971    0.4334   -0.6133 H         1 <0>         0.0000
     20 H7         -4.0697   -0.3232    0.9181 H         1 <0>         0.0000
     21 H8         -3.6995   -1.3564   -0.4811 H         1 <0>         0.0000
@<TRIPOS>BOND
     1    1    6 1
     2    1   17 1
     3    2    3 1
     4    2   16 1
     5    4   16 2
     6    5   17 2
     7    6    7 ar
     8    6    8 ar
     9    7   10 ar
    10    7   16 1
    11    8    9 1
    12    8   12 ar
    13   10   11 1
    14   10   14 ar
    15   12   13 1
    16   12   14 ar
    17   14   15 1
    18   17   18 1
    19   18   19 1
    20   18   20 1
    21   18   21 1
