@<TRIPOS>MOLECULE
DB00173
   15    16     0     0     0
SMALL
USER_CHARGES

@<TRIPOS>ATOM
      1 N1          1.5000   -0.7401   -0.0001 N.pl3     1 <0>         0.0330
      2 H1          1.6640   -1.7369   -0.0003 H         1 <0>         0.2700
      3 N2          1.9397    1.4387    0.0004 N.2       1 <0>        -0.5650
      4 N3         -0.3520    2.2034    0.0005 N.ar      1 <0>        -0.5660
      5 N4         -1.9828    0.4135   -0.0004 N.ar      1 <0>        -0.6200
      6 N5         -1.4144   -1.8623   -0.0003 N.pl3     1 <0>        -0.9000
      7 H2         -2.4092   -2.0409   -0.0002 H         1 <0>         0.4000
      8 H3         -0.7635   -2.6286    0.0011 H         1 <0>         0.4000
      9 C1          0.2823   -0.1168    0.0001 C.ar      1 <0>        -0.1520
     10 C2          0.5848    1.2350    0.0005 C.ar      1 <0>         0.4830
     11 C3         -1.0334   -0.5445   -0.0003 C.ar      1 <0>         0.4100
     12 C4          2.4628    0.2327   -0.0001 C.2       1 <0>         0.0370
     13 H4          3.5198    0.0008   -0.0005 H         1 <0>         0.1500
     14 C5         -1.5978    1.7078    0.0002 C.ar      1 <0>         0.4700
     15 H5         -2.4002    2.4383   -0.0005 H         1 <0>         0.1500
@<TRIPOS>BOND
     1    1    2 1
     2    1    9 1
     3    1   12 1
     4    3   10 1
     5    3   12 2
     6    4   10 ar
     7    4   14 ar
     8    5   11 ar
     9    5   14 ar
    10    6    7 1
    11    6    8 1
    12    6   11 1
    13    9   10 ar
    14    9   11 ar
    15   12   13 1
    16   14   15 1
