@<TRIPOS>MOLECULE
DB00720
   15    14     0     0     0
SMALL
USER_CHARGES

@<TRIPOS>ATOM
      1 Cl1         0.2503    2.2654    1.3763 Cl        1 <0>        -0.2900
      2 Cl2         0.4741    2.1415   -1.5154 Cl        1 <0>        -0.2900
      3 P1         -1.3778    0.3853   -0.0824 P.3       1 <0>         1.2420
      4 P2          1.6599    0.0496    0.1692 P.3       1 <0>         1.2420
      5 O1         -1.4786   -0.4770   -1.4331 O.3       1 <0>        -0.7710
      6 H1         -2.3575   -0.8565   -1.6339 H         1 <0>         0.5000
      7 O2         -1.2260   -0.8154    1.0130 O.3       1 <0>        -0.7710
      8 H2         -2.0998   -1.2173    1.2340 H         1 <0>         0.5000
      9 O3          1.7258   -0.8705   -1.1488 O.3       1 <0>        -0.7710
     10 H3          2.4947   -1.4753   -1.1596 H         1 <0>         0.5000
     11 O4          1.1517   -1.0405    1.2522 O.3       1 <0>        -0.7710
     12 H4          0.1506   -1.1416    1.3076 H         1 <0>         0.5000
     13 O5         -2.5964    1.2142    0.1617 O.2       1 <0>        -0.7000
     14 O6          2.9800    0.6716    0.5067 O.2       1 <0>        -0.7000
     15 C1          0.2487    1.1663   -0.0476 C.3       1 <0>         0.5800
@<TRIPOS>BOND
     1    1   15 1
     2    2   15 1
     3    3    5 1
     4    3    7 1
     5    3   13 2
     6    3   15 1
     7    4    9 1
     8    4   11 1
     9    4   14 2
    10    4   15 1
    11    5    6 1
    12    7    8 1
    13    9   10 1
    14   11   12 1
