@<TRIPOS>MOLECULE
DB00566
   16    15     0     0     0
SMALL
USER_CHARGES

@<TRIPOS>ATOM
      1 S1          0.9335   -1.4260    1.4099 S.3       1 <0>        -0.4100
      2 H1          2.2307   -1.6770    1.1601 H         1 <0>         0.1800
      3 S2         -0.9377    1.4327    1.4042 S.3       1 <0>        -0.4100
      4 H2         -2.2398    1.6665    1.1606 H         1 <0>         0.1800
      5 O1          3.0450   -0.0680   -0.1099 O.3       1 <0>        -0.6500
      6 H3          3.7136    0.6141   -0.3357 H         1 <0>         0.5000
      7 O2         -3.0443    0.0646   -0.1068 O.3       1 <0>        -0.6500
      8 H4         -3.7110   -0.6181   -0.3351 H         1 <0>         0.5000
      9 O3          1.8083    1.6656   -0.7616 O.2       1 <0>        -0.5700
     10 O4         -1.8039   -1.6613   -0.7723 O.2       1 <0>        -0.5700
     11 C1          0.6634   -0.3920   -0.0859 C.3       1 <0>         0.2910
     12 H5          0.6682   -1.0842   -0.9381 H         1 <0>         0.0000
     13 C2         -0.6625    0.3950   -0.0887 C.3       1 <0>         0.2910
     14 H6         -0.6658    1.0863   -0.9419 H         1 <0>         0.0000
     15 C3          1.8501    0.5251   -0.3274 C.2       1 <0>         0.6590
     16 C4         -1.8479   -0.5232   -0.3313 C.2       1 <0>         0.6590
@<TRIPOS>BOND
     1    1    2 1
     2    1   11 1
     3    3    4 1
     4    3   13 1
     5    5    6 1
     6    5   15 1
     7    7    8 1
     8    7   16 1
     9    9   15 2
    10   10   16 2
    11   11   12 1
    12   11   13 1
    13   11   15 1
    14   13   14 1
    15   13   16 1
