@<TRIPOS>MOLECULE
DB00217
   29    29     0     0     0
SMALL
USER_CHARGES

@<TRIPOS>ATOM
      1 N1         -0.2435   -0.1989    0.0205 N.pl3     1 <0>        -0.8440
      2 N2         -2.2526   -1.3730    0.0953 N.pl3     1 <0>        -0.8440
      3 N3         -2.2479    1.0524   -0.0707 N.pl3     1 <0>        -0.8440
      4 C1          0.6321    0.9765   -0.0499 C.3       1 <0>         0.4710
      5 C2          2.0576    0.4986   -0.0262 C.ar      1 <0>        -0.1440
      6 C3          2.7213    0.1828   -1.2204 C.ar      1 <0>        -0.1500
      7 C4          2.7243    0.3109    1.1932 C.ar      1 <0>        -0.1500
      8 C5         -1.6190   -0.1602    0.0138 C.cat     1 <0>         1.2000
      9 C6          4.0333   -0.2930   -1.1965 C.ar      1 <0>        -0.1500
     10 C7          4.0361   -0.1661    1.2152 C.ar      1 <0>        -0.1500
     11 C8          4.6893   -0.4667    0.0204 C.ar      1 <0>        -0.1500
     12 C9         -3.6860   -1.6535    0.0162 C.3       1 <0>         0.3280
     13 C10        -3.6814    1.3362   -0.0056 C.3       1 <0>         0.3280
     14 H1          0.2083   -1.1029    0.0745 H         1 <0>         0.4500
     15 H2         -1.6582   -2.1869    0.1841 H         1 <0>         0.4500
     16 H3         -1.6543    1.8651   -0.1497 H         1 <0>         0.4500
     17 H4          0.4317    1.5230   -0.9777 H         1 <0>         0.0000
     18 H5          0.4350    1.6263    0.8098 H         1 <0>         0.0000
     19 H6          2.2237    0.3080   -2.1807 H         1 <0>         0.1500
     20 H7          2.2305    0.5357    2.1363 H         1 <0>         0.1500
     21 H8          4.5451   -0.5289   -2.1263 H         1 <0>         0.1500
     22 H9          4.5512   -0.3029    2.1627 H         1 <0>         0.1500
     23 H10         5.7117   -0.8360    0.0395 H         1 <0>         0.1500
     24 H11        -4.1906   -1.2823    0.9089 H         1 <0>         0.0000
     25 H12        -3.8119   -2.7394   -0.0124 H         1 <0>         0.0000
     26 H13        -4.0987   -1.2514   -0.9105 H         1 <0>         0.0000
     27 H14        -3.8043    2.4234    0.0223 H         1 <0>         0.0000
     28 H15        -4.1040    0.9359    0.9177 H         1 <0>         0.0000
     29 H16        -4.1787    0.9671   -0.9038 H         1 <0>         0.0000
@<TRIPOS>BOND
     1    1    4 1
     2    1    8 1
     3    1   14 1
     4    2    8 1
     5    2   12 1
     6    2   15 1
     7    3    8 1
     8    3   13 1
     9    3   16 1
    10    4    5 1
    11    4   17 1
    12    4   18 1
    13    5    6 ar
    14    5    7 ar
    15    6    9 ar
    16    6   19 1
    17    7   10 ar
    18    7   20 1
    19    9   11 ar
    20    9   21 1
    21   10   11 ar
    22   10   22 1
    23   11   23 1
    24   12   24 1
    25   12   25 1
    26   12   26 1
    27   13   27 1
    28   13   28 1
    29   13   29 1
