@<TRIPOS>MOLECULE
DB00754
   27    28     0     0     0
SMALL
USER_CHARGES

@<TRIPOS>ATOM
      1 O1          0.7958    1.3760   -1.3377 O.2       1 <0>        -0.5700
      2 O2          2.2727   -1.6397    1.7729 O.2       1 <0>        -0.5700
      3 N1          1.8491   -0.2075   -0.0086 N.am      1 <0>        -0.4200
      4 N2          0.3853   -0.3262    1.6624 N.am      1 <0>        -0.7300
      5 H1         -0.0137   -0.6363    2.5396 H         1 <0>         0.3700
      6 C1         -0.1992    0.6471    0.7765 C.3       1 <0>         0.5050
      7 H2         -0.1914    1.6080    1.3010 H         1 <0>         0.0000
      8 C2          0.8479    0.6746   -0.3360 C.2       1 <0>         0.5690
      9 C3         -1.5794    0.2722    0.3011 C.ar      1 <0>        -0.1440
     10 C4          1.5895   -0.8130    1.1912 C.2       1 <0>         0.6900
     11 C5          3.0244   -0.4602   -0.8197 C.3       1 <0>         0.3000
     12 H3          3.3520   -1.4929   -0.6575 H         1 <0>         0.0000
     13 H4          2.7590   -0.3369   -1.8745 H         1 <0>         0.0000
     14 C6         -1.8936   -1.0340   -0.1075 C.ar      1 <0>        -0.1500
     15 H5         -1.1427   -1.8209   -0.0797 H         1 <0>         0.1500
     16 C7         -2.5795    1.2552    0.2318 C.ar      1 <0>        -0.1500
     17 H6         -2.3678    2.2812    0.5253 H         1 <0>         0.1500
     18 C8          4.1549    0.4923   -0.4664 C.3       1 <0>         0.0000
     19 H7          4.4447    0.3864    0.5850 H         1 <0>         0.0000
     20 H8          3.8565    1.5340   -0.6256 H         1 <0>         0.0000
     21 H9          5.0335    0.2888   -1.0856 H         1 <0>         0.0000
     22 C9         -3.1779   -1.3500   -0.5582 C.ar      1 <0>        -0.1500
     23 H10        -3.4088   -2.3658   -0.8690 H         1 <0>         0.1500
     24 C10        -3.8627    0.9371   -0.2193 C.ar      1 <0>        -0.1500
     25 H11        -4.6273    1.7072   -0.2658 H         1 <0>         0.1500
     26 C11        -4.1613   -0.3651   -0.6117 C.ar      1 <0>        -0.1500
     27 H12        -5.1596   -0.6118   -0.9641 H         1 <0>         0.1500
@<TRIPOS>BOND
     1    1    8 2
     2    2   10 2
     3    3    8 am
     4    3   10 am
     5    3   11 1
     6    4    5 1
     7    4    6 1
     8    4   10 am
     9    6    7 1
    10    6    8 1
    11    6    9 1
    12    9   14 ar
    13    9   16 ar
    14   11   12 1
    15   11   13 1
    16   11   18 1
    17   14   15 1
    18   14   22 ar
    19   16   17 1
    20   16   24 ar
    21   18   19 1
    22   18   20 1
    23   18   21 1
    24   22   23 1
    25   22   26 ar
    26   24   25 1
    27   24   26 ar
    28   26   27 1
