@<TRIPOS>MOLECULE
DB00350
   30    31     0     0     0
SMALL
USER_CHARGES

@<TRIPOS>ATOM
      1 C1         -0.5832   -0.0551   -0.2664 C.2       1 <0>         0.4100
      2 N1          0.7804   -0.1578   -0.4643 N.pl3     1 <0>        -0.8380
      3 C2         -1.4162   -1.1656   -0.2382 C.2       1 <0>        -0.1500
      4 H1         -1.0307   -2.1633   -0.4079 H         1 <0>         0.1500
      5 N2         -1.1166    1.1768   -0.1018 N.2       1 <0>        -0.6200
      6 C3          1.5581   -1.3830   -0.2811 C.3       1 <0>         0.3690
      7 H2          1.9725   -1.6935   -1.2477 H         1 <0>         0.0000
      8 H3          0.9687   -2.2226    0.0983 H         1 <0>         0.0000
      9 C4          1.5377    1.0258   -0.8825 C.3       1 <0>         0.3690
     10 H4          0.9239    1.9255   -1.0025 H         1 <0>         0.0000
     11 H5          1.9773    0.8289   -1.8689 H         1 <0>         0.0000
     12 C5         -2.7864   -1.0176   -0.0251 C.2       1 <0>         0.1900
     13 C6         -2.4463    1.3497    0.1104 C.cat     1 <0>         0.5000
     14 C7          2.6890   -1.1312    0.7192 C.3       1 <0>         0.0000
     15 H6          3.3276   -2.0192    0.7878 H         1 <0>         0.0000
     16 H7          2.2609   -0.9645    1.7160 H         1 <0>         0.0000
     17 C8          2.6490    1.3110    0.1257 C.3       1 <0>         0.0000
     18 H8          2.2071    1.6060    1.0854 H         1 <0>         0.0000
     19 H9          3.2598    2.1513   -0.2223 H         1 <0>         0.0000
     20 N3         -3.3131    0.2617    0.1563 N.pl3     1 <0>         0.5710
     21 N4         -3.6345   -2.1181    0.0035 N.pl3     1 <0>        -0.9000
     22 H10        -4.6166   -1.8999    0.1625 H         1 <0>         0.4000
     23 H11        -3.3238   -3.0693   -0.1202 H         1 <0>         0.4000
     24 N5         -2.9321    2.6329    0.2802 N.pl3     1 <0>        -0.9000
     25 H12        -3.9293    2.7255    0.4351 H         1 <0>         0.4000
     26 H13        -2.2949    3.4125    0.2462 H         1 <0>         0.4000
     27 C9          3.5313    0.0819    0.3307 C.3       1 <0>         0.0000
     28 H14         4.0817   -0.1345   -0.5936 H         1 <0>         0.0000
     29 H15         4.2754    0.2826    1.1091 H         1 <0>         0.0000
     30 O1         -4.5769    0.4232    0.3562 O.2       1 <0>        -0.7500
@<TRIPOS>BOND
     1    1    2 1
     2    1    3 1
     3    1    5 2
     4    2    6 1
     5    2    9 1
     6    3    4 1
     7    3   12 2
     8    5   13 1
     9    6    7 1
    10    6    8 1
    11    6   14 1
    12    9   10 1
    13    9   11 1
    14    9   17 1
    15   12   20 1
    16   12   21 1
    17   13   20 1
    18   13   24 1
    19   14   15 1
    20   14   16 1
    21   14   27 1
    22   17   18 1
    23   17   19 1
    24   17   27 1
    25   20   30 2
    26   21   22 1
    27   21   23 1
    28   24   25 1
    29   24   26 1
    30   27   28 1
    31   27   29 1
