@<TRIPOS>MOLECULE
DB00811
   29    30     0     0     0
SMALL
USER_CHARGES

@<TRIPOS>ATOM
      1 O1         -1.3065    0.7225   -0.9031 O.3       1 <0>        -0.5600
      2 O2         -0.3978   -2.5094    0.4425 O.3       1 <0>        -0.6800
      3 H1          0.5818   -2.4380    0.4810 H         1 <0>         0.4000
      4 O3         -2.6611   -2.1452   -0.8521 O.3       1 <0>        -0.6800
      5 H2         -2.1173   -2.9207   -0.5956 H         1 <0>         0.4000
      6 O4         -3.6399    2.4010   -0.0518 O.3       1 <0>        -0.6800
      7 H3         -4.0630    2.9568    0.6263 H         1 <0>         0.4000
      8 O5          4.6602   -1.4702    0.6553 O.2       1 <0>        -0.5700
      9 N1          0.9739    0.1481   -0.5211 N.pl3     1 <0>         0.3140
     10 N2          1.9434   -0.6955   -0.0987 N.2       1 <0>        -0.7070
     11 N3          2.7364    1.4302   -0.3983 N.2       1 <0>        -0.5650
     12 N4          5.3101    0.6738    0.2834 N.am      1 <0>        -0.8000
     13 H4          6.2711    0.4707    0.5206 H         1 <0>         0.3700
     14 H5          5.0386    1.6129    0.0100 H         1 <0>         0.3700
     15 C1         -2.3777   -1.1526    0.1414 C.3       1 <0>         0.2800
     16 H6         -2.9906   -1.3870    1.0157 H         1 <0>         0.0000
     17 C2         -0.8890   -1.1731    0.4219 C.3       1 <0>         0.2800
     18 H7         -0.6763   -0.6881    1.3826 H         1 <0>         0.0000
     19 C3         -2.6052    0.2453   -0.4413 C.3       1 <0>         0.2800
     20 H8         -3.2613    0.2180   -1.3186 H         1 <0>         0.0000
     21 C4         -0.3672   -0.3562   -0.7523 C.3       1 <0>         0.5360
     22 H9         -0.3254   -0.9326   -1.6847 H         1 <0>         0.0000
     23 C5         -3.1523    1.2279    0.5987 C.3       1 <0>         0.2800
     24 H10        -2.3746    1.5350    1.3065 H         1 <0>         0.0000
     25 H11        -3.9911    0.7854    1.1458 H         1 <0>         0.0000
     26 C6          1.4537    1.4067   -0.6834 C.2       1 <0>         0.0370
     27 H12         0.8482    2.2418   -1.0090 H         1 <0>         0.1500
     28 C7          3.0144    0.1175   -0.0497 C.2       1 <0>         0.4300
     29 C8          4.3646   -0.3249    0.3277 C.2       1 <0>         0.7160
@<TRIPOS>BOND
     1    1   19 1
     2    1   21 1
     3    2    3 1
     4    2   17 1
     5    4    5 1
     6    4   15 1
     7    6    7 1
     8    6   23 1
     9    8   29 2
    10    9   10 1
    11    9   21 1
    12    9   26 1
    13   10   28 2
    14   11   26 2
    15   11   28 1
    16   12   13 1
    17   12   14 1
    18   12   29 am
    19   15   16 1
    20   15   17 1
    21   15   19 1
    22   17   18 1
    23   17   21 1
    24   19   20 1
    25   19   23 1
    26   21   22 1
    27   23   24 1
    28   23   25 1
    29   26   27 1
    30   28   29 1
