@<TRIPOS>MOLECULE
DB00536
    9     8     0     0     0
SMALL
USER_CHARGES

@<TRIPOS>ATOM
      1 N1         -1.3043    0.0657    0.0004 N.pl3     1 <0>        -0.8500
      2 H1         -1.9182    0.8688    0.0002 H         1 <0>         0.4000
      3 H2         -1.7098   -0.8554   -0.0005 H         1 <0>         0.4000
      4 N2          0.7756   -0.8139    0.0005 N.pl3     1 <0>        -0.8500
      5 H3          1.7841   -0.7703    0.0004 H         1 <0>         0.4000
      6 H4          0.3582   -1.7323   -0.0005 H         1 <0>         0.4000
      7 N3          0.4885    1.4950   -0.0001 N.2       1 <0>        -0.8500
      8 H5          1.5079    1.4456   -0.0005 H         1 <0>         0.4000
      9 C1          0.0180    0.2970    0.0001 C.2       1 <0>         0.5500
@<TRIPOS>BOND
     1    1    2 1
     2    1    3 1
     3    1    9 1
     4    4    5 1
     5    4    6 1
     6    4    9 1
     7    7    8 1
     8    7    9 2
