@<TRIPOS>MOLECULE
DB00600
   27    28     0     0     0
SMALL
USER_CHARGES

@<TRIPOS>ATOM
      1 O1          0.2379    0.5110   -0.0022 O.3       1 <0>        -0.3630
      2 O2          5.7380    0.0761   -0.0021 O.3       1 <0>        -0.5320
      3 H1          6.0229   -0.8522    0.0081 H         1 <0>         0.4500
      4 C1         -2.0761   -0.2425   -0.0015 C.ar      1 <0>        -0.1440
      5 C2         -0.6140   -0.6346   -0.0009 C.3       1 <0>         0.4240
      6 H2         -0.4263   -1.2291    0.9024 H         1 <0>         0.0000
      7 H3         -0.4239   -1.2319   -0.9011 H         1 <0>         0.0000
      8 C3          1.5883    0.2872   -0.0013 C.ar      1 <0>         0.0820
      9 C4         -2.5032    1.0928    0.0139 C.ar      1 <0>        -0.1500
     10 H4         -1.7802    1.9061    0.0264 H         1 <0>         0.1500
     11 C5         -3.0470   -1.2578   -0.0155 C.ar      1 <0>        -0.1500
     12 H5         -2.7467   -2.3038   -0.0269 H         1 <0>         0.1500
     13 C6          2.3704    1.4474   -0.0148 C.ar      1 <0>        -0.1500
     14 H6          1.8899    2.4220   -0.0257 H         1 <0>         0.1500
     15 C7          2.2159   -0.9614    0.0128 C.ar      1 <0>        -0.1500
     16 H7          1.6515   -1.8883    0.0249 H         1 <0>         0.1500
     17 C8         -3.8649    1.4048    0.0159 C.ar      1 <0>        -0.1500
     18 H8         -4.1823    2.4439    0.0283 H         1 <0>         0.1500
     19 C9         -4.4076   -0.9449   -0.0135 C.ar      1 <0>        -0.1500
     20 H9         -5.1484   -1.7398   -0.0245 H         1 <0>         0.1500
     21 C10        -4.8160    0.3868    0.0017 C.ar      1 <0>        -0.1500
     22 H10        -5.8749    0.6321    0.0032 H         1 <0>         0.1500
     23 C11         3.7627    1.3644   -0.0161 C.ar      1 <0>        -0.1500
     24 H11         4.3654    2.2680   -0.0270 H         1 <0>         0.1500
     25 C12         3.6129   -1.0471    0.0134 C.ar      1 <0>        -0.1500
     26 H12         4.0817   -2.0262    0.0243 H         1 <0>         0.1500
     27 C13         4.3743    0.1169   -0.0019 C.ar      1 <0>         0.0820
@<TRIPOS>BOND
     1    1    5 1
     2    1    8 1
     3    2    3 1
     4    2   27 1
     5    4    5 1
     6    4    9 ar
     7    4   11 ar
     8    5    6 1
     9    5    7 1
    10    8   13 ar
    11    8   15 ar
    12    9   10 1
    13    9   17 ar
    14   11   12 1
    15   11   19 ar
    16   13   14 1
    17   13   23 ar
    18   15   16 1
    19   15   25 ar
    20   17   18 1
    21   17   21 ar
    22   19   20 1
    23   19   21 ar
    24   21   22 1
    25   23   24 1
    26   23   27 ar
    27   25   26 1
    28   25   27 ar
