@<TRIPOS>MOLECULE
DB00936
   16    16     0     0     0
SMALL
USER_CHARGES

@<TRIPOS>ATOM
      1 O1         -0.4314   -2.3335    0.0001 O.3       1 <0>        -0.5320
      2 H1         -1.4068   -2.1798   -0.0003 H         1 <0>         0.4500
      3 O2         -2.5803    1.2524    0.0005 O.3       1 <0>        -0.6500
      4 H2         -3.5448    1.0752    0.0008 H         1 <0>         0.5000
      5 O3         -2.6081   -1.0053   -0.0012 O.2       1 <0>        -0.5700
      6 C1         -0.5201    0.0985    0.0001 C.ar      1 <0>         0.0860
      7 C2          0.1917   -1.1112    0.0003 C.ar      1 <0>         0.0820
      8 C3          0.1802    1.3099    0.0003 C.ar      1 <0>        -0.1500
      9 H3         -0.3479    2.2613   -0.0003 H         1 <0>         0.1500
     10 C4          1.5839   -1.1127    0.0006 C.ar      1 <0>        -0.1500
     11 H4          2.1268   -2.0539    0.0002 H         1 <0>         0.1500
     12 C5          1.5774    1.3064   -0.0004 C.ar      1 <0>        -0.1500
     13 H5          2.1226    2.2475   -0.0005 H         1 <0>         0.1500
     14 C6          2.2772    0.0976   -0.0002 C.ar      1 <0>        -0.1500
     15 H6          3.3643    0.0995    0.0003 H         1 <0>         0.1500
     16 C7         -1.9845    0.0480   -0.0002 C.2       1 <0>         0.6340
@<TRIPOS>BOND
     1    1    2 1
     2    1    7 1
     3    3    4 1
     4    3   16 1
     5    5   16 2
     6    6    7 ar
     7    6    8 ar
     8    6   16 1
     9    7   10 ar
    10    8    9 1
    11    8   12 ar
    12   10   11 1
    13   10   14 ar
    14   12   13 1
    15   12   14 ar
    16   14   15 1
