@<TRIPOS>MOLECULE
DB00916
   21    21     0     0     0
SMALL
USER_CHARGES

@<TRIPOS>ATOM
      1 O1          3.1126   -0.9783    0.1101 O.3       1 <0>        -0.6800
      2 H1          3.6855   -1.2540   -0.6277 H         1 <0>         0.4000
      3 O2         -2.7601   -2.6355    0.2280 O.2       1 <0>        -0.5200
      4 O3         -0.5678   -2.7910    0.1596 O.2       1 <0>        -0.5200
      5 N1         -0.4433    0.0406    0.2379 N.pl3     1 <0>         0.0480
      6 N2         -2.0885    1.4011   -0.4116 N.2       1 <0>        -0.5650
      7 N3         -1.6243   -2.1535    0.1482 N.pl3     1 <0>         0.9600
      8 C1          0.8729   -0.3540    0.7017 C.3       1 <0>         0.2560
      9 H2          1.2878    0.4680    1.2976 H         1 <0>         0.0000
     10 H3          0.7703   -1.1792    1.4140 H         1 <0>         0.0000
     11 C2         -0.8215    1.3449   -0.0450 C.2       1 <0>         0.0070
     12 C3         -1.5482   -0.7403    0.0068 C.2       1 <0>        -0.0720
     13 C4          1.8263   -0.7070   -0.4331 C.3       1 <0>         0.2800
     14 H4          1.9211    0.1211   -1.1415 H         1 <0>         0.0000
     15 H5          1.4859   -1.5887   -0.9834 H         1 <0>         0.0000
     16 C5         -2.5504    0.1145   -0.3734 C.2       1 <0>         0.0770
     17 H6         -3.5743   -0.1217   -0.6318 H         1 <0>         0.1500
     18 C6          0.0819    2.5207    0.0657 C.3       1 <0>         0.1800
     19 H7         -0.4150    3.4198   -0.3124 H         1 <0>         0.0000
     20 H8          0.9941    2.3715   -0.5197 H         1 <0>         0.0000
     21 H9          0.3551    2.7009    1.1099 H         1 <0>         0.0000
@<TRIPOS>BOND
     1    1    2 1
     2    1   13 1
     3    3    7 2
     4    4    7 2
     5    5    8 1
     6    5   11 1
     7    5   12 1
     8    6   11 2
     9    6   16 1
    10    7   12 1
    11    8    9 1
    12    8   10 1
    13    8   13 1
    14   11   18 1
    15   12   16 2
    16   13   14 1
    17   13   15 1
    18   16   17 1
    19   18   19 1
    20   18   20 1
    21   18   21 1
