@<TRIPOS>MOLECULE
DB00431
   18    18     0     0     0
SMALL
USER_CHARGES

@<TRIPOS>ATOM
      1 C1          0.7754    1.2815    0.2249 C.3       1 <0>         0.2900
      2 H1          1.0843    1.3473    1.2769 H         1 <0>         0.0000
      3 C2          1.3970    0.0035   -0.3738 C.3       1 <0>         0.2900
      4 H2          1.2710    0.0041   -1.4638 H         1 <0>         0.0000
      5 C3          0.7824   -1.2775    0.2234 C.3       1 <0>         0.2900
      6 H3          1.0935   -1.3457    1.2745 H         1 <0>         0.0000
      7 C4         -0.7816    1.2774    0.2239 C.3       1 <0>         0.2900
      8 H4         -1.0937    1.3450    1.2739 H         1 <0>         0.0000
      9 C5         -0.7756   -1.2806    0.2254 C.3       1 <0>         0.2900
     10 H5         -1.0845   -1.3480    1.2764 H         1 <0>         0.0000
     11 C6         -1.3970   -0.0039   -0.3739 C.3       1 <0>         0.2900
     12 H6         -1.2710   -0.0039   -1.4639 H         1 <0>         0.0000
     13 Cl1         1.5343   -2.7272   -0.5453 Cl        1 <0>        -0.2900
     14 Cl2        -3.1870   -0.0084   -0.0799 Cl        1 <0>        -0.2900
     15 Cl3         1.5216    2.7368   -0.5373 Cl        1 <0>        -0.2900
     16 Cl4         3.1869    0.0081   -0.0797 Cl        1 <0>        -0.2900
     17 Cl5        -1.5344    2.7278   -0.5444 Cl        1 <0>        -0.2900
     18 Cl6        -1.5217   -2.7362   -0.5374 Cl        1 <0>        -0.2900
@<TRIPOS>BOND
     1    1    2 1
     2    1    3 1
     3    1    7 1
     4    1   15 1
     5    3    4 1
     6    3    5 1
     7    3   16 1
     8    5    6 1
     9    5    9 1
    10    5   13 1
    11    7    8 1
    12    7   11 1
    13    7   17 1
    14    9   10 1
    15    9   11 1
    16    9   18 1
    17   11   12 1
    18   11   14 1
