@<TRIPOS>MOLECULE
DB00259
   19    19     0     0     0
SMALL
USER_CHARGES

@<TRIPOS>ATOM
      1 S1          2.5148    0.0822   -0.5950 S.o2      1 <0>         1.4470
      2 O1          2.8358    1.3157   -1.2776 O.2       1 <0>        -0.6500
      3 O2          2.9361   -1.2056   -1.1001 O.2       1 <0>        -0.6500
      4 N1          3.0787    0.1865    0.9988 N.pl3     1 <0>        -0.9780
      5 N2         -3.3815   -0.0550    0.1978 N.pl3     1 <0>        -0.9000
      6 C1          0.7643    0.0351   -0.3422 C.ar      1 <0>        -0.0090
      7 C2          0.0552    1.2329   -0.2399 C.ar      1 <0>        -0.1500
      8 C3          0.1036   -1.1914   -0.2810 C.ar      1 <0>        -0.1500
      9 C4         -2.0099   -0.0255    0.0179 C.ar      1 <0>         0.1000
     10 C5         -1.3292    1.1948   -0.0560 C.ar      1 <0>        -0.1500
     11 C6         -1.2811   -1.2141   -0.0966 C.ar      1 <0>        -0.1500
     12 H1          3.5998   -0.6566    1.2572 H         1 <0>         0.4200
     13 H2          2.3614    0.4137    1.6916 H         1 <0>         0.4200
     14 H3         -3.8774   -0.9345    0.2499 H         1 <0>         0.4000
     15 H4         -3.9108    0.8021    0.2795 H         1 <0>         0.4000
     16 H5          0.5620    2.1926   -0.3050 H         1 <0>         0.1500
     17 H6          0.6457   -2.1300   -0.3754 H         1 <0>         0.1500
     18 H7         -1.8764    2.1301    0.0241 H         1 <0>         0.1500
     19 H8         -1.7912   -2.1732   -0.0480 H         1 <0>         0.1500
@<TRIPOS>BOND
     1    1    2 2
     2    1    3 2
     3    1    4 1
     4    1    6 1
     5    4   12 1
     6    4   13 1
     7    5    9 1
     8    5   14 1
     9    5   15 1
    10    6    7 ar
    11    6    8 ar
    12    7   10 ar
    13    7   16 1
    14    8   11 ar
    15    8   17 1
    16    9   10 ar
    17    9   11 ar
    18   10   18 1
    19   11   19 1
