@<TRIPOS>MOLECULE
DB00740
   20    21     0     0     0
SMALL
USER_CHARGES

@<TRIPOS>ATOM
      1 S1         -2.4065    1.6279   -0.0025 S.3       1 <0>        -0.0800
      2 F1          3.9255   -0.5438    1.1047 F         1 <0>        -0.3400
      3 F2          3.9305   -0.5425   -1.1018 F         1 <0>        -0.3400
      4 F3          4.9676    1.0339    0.0047 F         1 <0>        -0.3400
      5 O1          2.7143    1.0461    0.0003 O.3       1 <0>        -0.3630
      6 N1         -2.4816   -0.9393   -0.0037 N.2       1 <0>        -0.5650
      7 N2         -4.5831    0.0848    0.0031 N.pl3     1 <0>        -0.8840
      8 H1         -5.1569    0.9189    0.0041 H         1 <0>         0.4000
      9 H2         -5.0633   -0.8073    0.0046 H         1 <0>         0.4000
     10 C1         -0.8996    0.7960   -0.0028 C.ar      1 <0>         0.0400
     11 C2         -1.1442   -0.5768   -0.0028 C.ar      1 <0>         0.2270
     12 C3          0.4066    1.3161   -0.0019 C.ar      1 <0>        -0.1500
     13 H3          0.5728    2.3897   -0.0020 H         1 <0>         0.1500
     14 C4          1.4933    0.4287   -0.0011 C.ar      1 <0>         0.0820
     15 C5         -0.0424   -1.4546   -0.0016 C.ar      1 <0>        -0.1500
     16 H4         -0.2135   -2.5277   -0.0009 H         1 <0>         0.1500
     17 C6          1.2658   -0.9460   -0.0009 C.ar      1 <0>        -0.1500
     18 H5          2.0794   -1.6666   -0.0005 H         1 <0>         0.1500
     19 C7         -3.2425    0.1285   -0.0012 C.2       1 <0>         0.4620
     20 C8          3.8777    0.2341    0.0023 C.3       1 <0>         1.3000
@<TRIPOS>BOND
     1    1   10 1
     2    1   19 1
     3    2   20 1
     4    3   20 1
     5    4   20 1
     6    5   14 1
     7    5   20 1
     8    6   11 1
     9    6   19 2
    10    7    8 1
    11    7    9 1
    12    7   19 1
    13   10   11 ar
    14   10   12 ar
    15   11   15 ar
    16   12   13 1
    17   12   14 ar
    18   14   17 ar
    19   15   16 1
    20   15   17 ar
    21   17   18 1
