@<TRIPOS>MOLECULE
DB00634
   24    24     0     0     0
SMALL
USER_CHARGES

@<TRIPOS>ATOM
      1 S1         -1.0362   -1.7010    0.0002 S.o2      1 <0>         1.4470
      2 O1         -1.2436   -2.2121   -1.3367 O.2       1 <0>        -0.6500
      3 O2         -0.9640   -2.5962    1.1395 O.2       1 <0>        -0.6500
      4 O3         -2.4080    0.5255   -1.6399 O.2       1 <0>        -0.5700
      5 N1         -2.2446   -0.6013    0.3838 N.am      1 <0>        -0.7940
      6 H1         -2.6570   -0.7586    1.3026 H         1 <0>         0.4200
      7 N2          4.1810    1.1766    0.0352 N.pl3     1 <0>        -0.9000
      8 H2          4.2301    2.1832    0.1045 H         1 <0>         0.4000
      9 H3          5.0443    0.6546   -0.0256 H         1 <0>         0.4000
     10 C1          0.4825   -0.7907   -0.0046 C.ar      1 <0>        -0.0090
     11 C2          1.6674   -1.5270   -0.0907 C.ar      1 <0>        -0.1500
     12 H4          1.6444   -2.6117   -0.1668 H         1 <0>         0.1500
     13 C3          0.5265    0.5982    0.1015 C.ar      1 <0>        -0.1500
     14 H5         -0.3718    1.2015    0.1743 H         1 <0>         0.1500
     15 C4          2.9609    0.5264    0.0220 C.ar      1 <0>         0.1000
     16 C5          2.8982   -0.8659   -0.0788 C.ar      1 <0>        -0.1500
     17 H6          3.8115   -1.4501   -0.1481 H         1 <0>         0.1500
     18 C6          1.7650    1.2487    0.1105 C.ar      1 <0>        -0.1500
     19 H7          1.7902    2.3330    0.1886 H         1 <0>         0.1500
     20 C7         -2.8525    0.2913   -0.5252 C.2       1 <0>         0.7450
     21 C8         -4.0794    0.9679    0.0168 C.3       1 <0>         0.0610
     22 H8         -4.8089    0.2171    0.3299 H         1 <0>         0.0000
     23 H9         -4.5292    1.5933   -0.7602 H         1 <0>         0.0000
     24 H10        -3.8068    1.5975    0.8674 H         1 <0>         0.0000
@<TRIPOS>BOND
     1    1    2 2
     2    1    3 2
     3    1    5 1
     4    1   10 1
     5    4   20 2
     6    5    6 1
     7    5   20 am
     8    7    8 1
     9    7    9 1
    10    7   15 1
    11   10   11 ar
    12   10   13 ar
    13   11   12 1
    14   11   16 ar
    15   13   14 1
    16   13   18 ar
    17   15   16 ar
    18   15   18 ar
    19   16   17 1
    20   18   19 1
    21   20   21 1
    22   21   22 1
    23   21   23 1
    24   21   24 1
