@<TRIPOS>MOLECULE
DB00779
   29    30     0     0     0
SMALL
USER_CHARGES

@<TRIPOS>ATOM
      1 O1          0.8907   -3.3354    0.0077 O.2       1 <0>        -0.5700
      2 O2          4.3878   -0.9055    0.0751 O.3       1 <0>        -0.6500
      3 H1          5.2222   -1.4206    0.0561 H         1 <0>         0.5000
      4 O3          3.7083   -3.0132   -0.1011 O.2       1 <0>        -0.5700
      5 N1          0.6427    0.7145    0.0072 N.pl3     1 <0>        -0.5690
      6 N2         -1.7675    0.5753    0.0105 N.ar      1 <0>        -0.6200
      7 C1         -0.5595   -0.0460    0.0073 C.ar      1 <0>         0.4100
      8 C2         -0.4778   -1.4417    0.0026 C.ar      1 <0>         0.0860
      9 C3          0.4123    2.1699    0.0168 C.3       1 <0>         0.3690
     10 H2         -0.2006    2.4494   -0.8497 H         1 <0>         0.0000
     11 H3         -0.1443    2.4439    0.9224 H         1 <0>         0.0000
     12 C4          1.8616    0.0606    0.0023 C.2       1 <0>        -0.0500
     13 H4          2.7123    0.7336   -0.0017 H         1 <0>         0.1500
     14 C5          2.0594   -1.2642   -0.0021 C.2       1 <0>         0.0290
     15 C6          0.8421   -2.1107    0.0016 C.2       1 <0>         0.4690
     16 C7         -1.6488   -2.2045   -0.0008 C.ar      1 <0>        -0.1500
     17 H5         -1.6050   -3.2915   -0.0044 H         1 <0>         0.1500
     18 C8         -2.8972   -0.1741    0.0061 C.ar      1 <0>         0.1660
     19 C9          1.6717    3.0234   -0.0256 C.3       1 <0>         0.0000
     20 H6          2.2567    2.8301   -0.9306 H         1 <0>         0.0000
     21 H7          2.3068    2.8435    0.8479 H         1 <0>         0.0000
     22 H8          1.4030    4.0854   -0.0253 H         1 <0>         0.0000
     23 C10        -2.8791   -1.5614    0.0003 C.ar      1 <0>        -0.1500
     24 H9         -3.8005   -2.1356   -0.0041 H         1 <0>         0.1500
     25 C11         3.4148   -1.8344   -0.0170 C.2       1 <0>         0.7060
     26 C12        -4.2037    0.5606    0.0011 C.3       1 <0>         0.1440
     27 H10        -4.8055    0.2725    0.8681 H         1 <0>         0.0000
     28 H11        -4.7597    0.3336   -0.9135 H         1 <0>         0.0000
     29 H12        -4.0434    1.6426    0.0428 H         1 <0>         0.0000
@<TRIPOS>BOND
     1    1   15 2
     2    2    3 1
     3    2   25 1
     4    4   25 2
     5    5    7 1
     6    5    9 1
     7    5   12 1
     8    6    7 ar
     9    6   18 ar
    10    7    8 ar
    11    8   15 1
    12    8   16 ar
    13    9   10 1
    14    9   11 1
    15    9   19 1
    16   12   13 1
    17   12   14 2
    18   14   15 1
    19   14   25 1
    20   16   17 1
    21   16   23 ar
    22   18   23 ar
    23   18   26 1
    24   19   20 1
    25   19   21 1
    26   19   22 1
    27   23   24 1
    28   26   27 1
    29   26   28 1
    30   26   29 1
