@<TRIPOS>MOLECULE
DB00676
   28    29     0     0     0
SMALL
USER_CHARGES

@<TRIPOS>ATOM
      1 O1         -0.0713    0.6368   -0.1019 O.3       1 <0>        -0.4300
      2 O2         -1.3353    2.5115   -0.5126 O.2       1 <0>        -0.5700
      3 C1          2.3182    0.5429   -0.1477 C.ar      1 <0>        -0.1440
      4 C2          1.1078    1.4268   -0.3007 C.3       1 <0>         0.4240
      5 H1          1.1081    1.8597   -1.3091 H         1 <0>         0.0000
      6 H2          1.1260    2.2349    0.4401 H         1 <0>         0.0000
      7 C3         -2.3924    0.4329   -0.0316 C.ar      1 <0>         0.0860
      8 C4          3.3570    0.9004    0.7238 C.ar      1 <0>        -0.1500
      9 H3          3.2941    1.8114    1.3140 H         1 <0>         0.1500
     10 C5          2.4403   -0.6353   -0.8996 C.ar      1 <0>        -0.1500
     11 H4          1.6505   -0.9287   -1.5871 H         1 <0>         0.1500
     12 C6         -1.2321    1.3227   -0.2432 C.2       1 <0>         0.6340
     13 C7          4.4891    0.0904    0.8475 C.ar      1 <0>        -0.1500
     14 H5          5.2877    0.3750    1.5261 H         1 <0>         0.1500
     15 C8          3.5720   -1.4445   -0.7739 C.ar      1 <0>        -0.1500
     16 H6          3.6534   -2.3570   -1.3582 H         1 <0>         0.1500
     17 C9         -2.2498   -0.9249    0.2883 C.ar      1 <0>        -0.1500
     18 H7         -1.2670   -1.3775    0.3962 H         1 <0>         0.1500
     19 C10        -3.6781    0.9782   -0.1587 C.ar      1 <0>        -0.1500
     20 H8         -3.8109    2.0296   -0.4066 H         1 <0>         0.1500
     21 C11         4.5946   -1.0816    0.0996 C.ar      1 <0>        -0.1500
     22 H9          5.4751   -1.7103    0.1969 H         1 <0>         0.1500
     23 C12        -3.3794   -1.7234    0.4758 C.ar      1 <0>        -0.1500
     24 H10        -3.2658   -2.7761    0.7238 H         1 <0>         0.1500
     25 C13        -4.8050    0.1754    0.0299 C.ar      1 <0>        -0.1500
     26 H11        -5.7997    0.6032   -0.0708 H         1 <0>         0.1500
     27 C14        -4.6547   -1.1742    0.3466 C.ar      1 <0>        -0.1500
     28 H12        -5.5327   -1.7983    0.4929 H         1 <0>         0.1500
@<TRIPOS>BOND
     1    1    4 1
     2    1   12 1
     3    2   12 2
     4    3    4 1
     5    3    8 ar
     6    3   10 ar
     7    4    5 1
     8    4    6 1
     9    7   12 1
    10    7   17 ar
    11    7   19 ar
    12    8    9 1
    13    8   13 ar
    14   10   11 1
    15   10   15 ar
    16   13   14 1
    17   13   21 ar
    18   15   16 1
    19   15   21 ar
    20   17   18 1
    21   17   23 ar
    22   19   20 1
    23   19   25 ar
    24   21   22 1
    25   23   24 1
    26   23   27 ar
    27   25   26 1
    28   25   27 ar
    29   27   28 1
