@<TRIPOS>MOLECULE
DB00855
   18    17     0     0     0
SMALL
USER_CHARGES

@<TRIPOS>ATOM
      1 O1         -1.0314   -1.5988    0.1831 O.2       1 <0>        -0.5700
      2 O2          3.8885   -0.5694   -0.0638 O.3       1 <0>        -0.6500
      3 H1          4.6677    0.0254   -0.1019 H         1 <0>         0.5000
      4 O3          2.9365    1.4561   -0.0624 O.2       1 <0>        -0.5700
      5 N1         -3.3665   -0.2875   -0.4922 N.3       1 <0>        -0.9900
      6 H2         -4.2560    0.1347   -0.2276 H         1 <0>         0.3600
      7 H3         -3.3544   -1.2278   -0.0887 H         1 <0>         0.3600
      8 C1          0.3170    0.3919    0.0169 C.3       1 <0>         0.0610
      9 H4          0.3144    0.9981   -0.8971 H         1 <0>         0.0000
     10 H5          0.3556    1.0707    0.8769 H         1 <0>         0.0000
     11 C2          1.5286   -0.5344    0.0235 C.3       1 <0>         0.0610
     12 H6          1.4884   -1.2067   -0.8412 H         1 <0>         0.0000
     13 H7          1.5353   -1.1376    0.9375 H         1 <0>         0.0000
     14 C3         -0.9926   -0.3718    0.0813 C.2       1 <0>         0.4480
     15 C4         -2.2616    0.4765    0.0850 C.3       1 <0>         0.3310
     16 H8         -2.1027    1.3804   -0.5101 H         1 <0>         0.0000
     17 H9         -2.4800    0.7567    1.1195 H         1 <0>         0.0000
     18 C5          2.8135    0.2437   -0.0388 C.2       1 <0>         0.6590
@<TRIPOS>BOND
     1    1   14 2
     2    2    3 1
     3    2   18 1
     4    4   18 2
     5    5    6 1
     6    5    7 1
     7    5   15 1
     8    8    9 1
     9    8   10 1
    10    8   11 1
    11    8   14 1
    12   11   12 1
    13   11   13 1
    14   11   18 1
    15   14   15 1
    16   15   16 1
    17   15   17 1
