@<TRIPOS>MOLECULE
DB00149
   22    21     0     0     0
SMALL
USER_CHARGES

@<TRIPOS>ATOM
      1 O1         -3.6529    0.0792    0.0950 O.3       1 <0>        -0.6500
      2 H1         -4.3603    0.7560    0.0443 H         1 <0>         0.5000
      3 C1          2.4783    1.0494   -0.1156 C.3       1 <0>         0.0000
      4 H2          3.4198    0.7738    0.3701 H         1 <0>         0.0000
      5 H3          2.2808    2.1002    0.1197 H         1 <0>         0.0000
      6 H4          2.6183    0.9644   -1.1991 H         1 <0>         0.0000
      7 C2          0.0070    0.6278   -0.2722 C.3       1 <0>         0.0000
      8 H5          0.0822    0.5684   -1.3676 H         1 <0>         0.0000
      9 H6         -0.0923    1.6989   -0.0510 H         1 <0>         0.0000
     10 C3         -2.4997    0.7951    0.1013 C.2       1 <0>         0.6590
     11 O2         -2.5332    2.0141    0.0932 O.2       1 <0>        -0.5700
     12 C4         -1.2594   -0.1051    0.2048 C.3       1 <0>         0.3310
     13 H7         -1.1696   -0.3717    1.2646 H         1 <0>         0.0000
     14 N1         -1.4978   -1.3255   -0.5902 N.3       1 <0>        -0.9900
     15 H8         -0.9089   -2.0824   -0.2536 H         1 <0>         0.3600
     16 H9         -2.4639   -1.6197   -0.4152 H         1 <0>         0.3600
     17 C5          1.3305    0.1550    0.3681 C.3       1 <0>         0.0000
     18 H10         1.2511    0.2809    1.4560 H         1 <0>         0.0000
     19 C6          1.6711   -1.3061    0.0853 C.3       1 <0>         0.0000
     20 H11         1.6131   -1.5307   -0.9849 H         1 <0>         0.0000
     21 H12         0.9991   -1.9791    0.6237 H         1 <0>         0.0000
     22 H13         2.6867   -1.5429    0.4235 H         1 <0>         0.0000
@<TRIPOS>BOND
     1    1    2 1
     2    1   10 1
     3    3    4 1
     4    3    5 1
     5    3    6 1
     6    3   17 1
     7    7    8 1
     8    7    9 1
     9    7   12 1
    10    7   17 1
    11   10   11 2
    12   10   12 1
    13   12   13 1
    14   12   14 1
    15   14   15 1
    16   14   16 1
    17   17   18 1
    18   17   19 1
    19   19   20 1
    20   19   21 1
    21   19   22 1
