@<TRIPOS>MOLECULE
DB00379
   30    30     0     0     0
SMALL
USER_CHARGES

@<TRIPOS>ATOM
      1 O1         -0.2258   -0.1168   -0.8501 O.3       1 <0>        -0.3630
      2 N1         -2.9582    1.1095   -0.7424 N.3       1 <0>        -0.9900
      3 H1         -2.9340    1.7611    0.0401 H         1 <0>         0.3600
      4 H2         -3.9208    1.1042   -1.0799 H         1 <0>         0.3600
      5 C1         -2.5858   -0.2384   -0.2888 C.3       1 <0>         0.2700
      6 H3         -2.6595   -0.9078   -1.1536 H         1 <0>         0.0000
      7 C2         -1.1407   -0.2743    0.2471 C.3       1 <0>         0.2800
      8 H4         -0.9966    0.5116    1.0001 H         1 <0>         0.0000
      9 H5         -0.9592   -1.2447    0.7258 H         1 <0>         0.0000
     10 C3          1.0642   -0.0004   -0.3896 C.ar      1 <0>         0.0820
     11 C4          1.8560   -1.1528   -0.2499 C.ar      1 <0>        -0.1440
     12 C5          1.5892    1.2795   -0.1423 C.ar      1 <0>        -0.1440
     13 C6         -3.5688   -0.6963    0.7867 C.3       1 <0>         0.0000
     14 H6         -3.5310   -0.0482    1.6696 H         1 <0>         0.0000
     15 H7         -3.3402   -1.7176    1.1096 H         1 <0>         0.0000
     16 H8         -4.5976   -0.6932    0.4078 H         1 <0>         0.0000
     17 C7          3.1633   -1.0152    0.2360 C.ar      1 <0>        -0.1500
     18 H9          3.7909   -1.8910    0.3801 H         1 <0>         0.1500
     19 C8          2.8995    1.3867    0.3425 C.ar      1 <0>        -0.1500
     20 H10         3.3242    2.3626    0.5679 H         1 <0>         0.1500
     21 C9          3.6792    0.2460    0.5350 C.ar      1 <0>        -0.1500
     22 H11         4.6963    0.3407    0.9080 H         1 <0>         0.1500
     23 C10         1.3264   -2.5222   -0.5647 C.3       1 <0>         0.1440
     24 H12         0.6364   -2.4955   -1.4142 H         1 <0>         0.0000
     25 H13         2.1395   -3.2031   -0.8381 H         1 <0>         0.0000
     26 H14         0.8075   -2.9349    0.3070 H         1 <0>         0.0000
     27 C11         0.7675    2.5202   -0.3462 C.3       1 <0>         0.1440
     28 H15         1.4065    3.4017   -0.4651 H         1 <0>         0.0000
     29 H16         0.1118    2.6846    0.5147 H         1 <0>         0.0000
     30 H17         0.1597    2.4442   -1.2533 H         1 <0>         0.0000
@<TRIPOS>BOND
     1    1    7 1
     2    1   10 1
     3    2    3 1
     4    2    4 1
     5    2    5 1
     6    5    6 1
     7    5    7 1
     8    5   13 1
     9    7    8 1
    10    7    9 1
    11   10   11 ar
    12   10   12 ar
    13   11   17 ar
    14   11   23 1
    15   12   19 ar
    16   12   27 1
    17   13   14 1
    18   13   15 1
    19   13   16 1
    20   17   18 1
    21   17   21 ar
    22   19   20 1
    23   19   21 ar
    24   21   22 1
    25   23   24 1
    26   23   25 1
    27   23   26 1
    28   27   28 1
    29   27   29 1
    30   27   30 1
