@<TRIPOS>MOLECULE
DB00182
   23    23     0     0     0
SMALL
USER_CHARGES

@<TRIPOS>ATOM
      1 C1          0.6326    0.1426    0.5537 C.ar      1 <0>        -0.1440
      2 C2          1.3109   -1.0838    0.5792 C.ar      1 <0>        -0.1500
      3 H1          0.8081   -1.9824    0.9277 H         1 <0>         0.1500
      4 C3          1.3082    1.2833    0.0971 C.ar      1 <0>        -0.1500
      5 H2          0.8044    2.2473    0.0717 H         1 <0>         0.1500
      6 C4         -0.8068    0.2374    1.0046 C.3       1 <0>         0.1440
      7 H3         -0.8836    1.0877    1.6964 H         1 <0>         0.0000
      8 H4         -1.0685   -0.6498    1.5988 H         1 <0>         0.0000
      9 C5          2.6381   -1.1673    0.1540 C.ar      1 <0>        -0.1500
     10 H5          3.1552   -2.1227    0.1755 H         1 <0>         0.1500
     11 C6          2.6356    1.1979   -0.3269 C.ar      1 <0>        -0.1500
     12 H6          3.1519    2.0877   -0.6788 H         1 <0>         0.1500
     13 C7         -1.8087    0.4132   -0.1540 C.3       1 <0>         0.2700
     14 H7         -1.5193    1.2781   -0.7625 H         1 <0>         0.0000
     15 C8          3.3002   -0.0274   -0.2996 C.ar      1 <0>        -0.1500
     16 H8          4.3335   -0.0935   -0.6292 H         1 <0>         0.1500
     17 C9         -1.8785   -0.8182   -1.0598 C.3       1 <0>         0.0000
     18 H9         -2.1360   -1.7197   -0.4927 H         1 <0>         0.0000
     19 H10        -0.9219   -0.9948   -1.5613 H         1 <0>         0.0000
     20 H11        -2.6331   -0.6856   -1.8438 H         1 <0>         0.0000
     21 N1         -3.1428    0.6842    0.3961 N.3       1 <0>        -0.9900
     22 H12        -3.4720   -0.1254    0.9210 H         1 <0>         0.3600
     23 H13        -3.8076    0.8111   -0.3673 H         1 <0>         0.3600
@<TRIPOS>BOND
     1    1    2 ar
     2    1    4 ar
     3    1    6 1
     4    2    3 1
     5    2    9 ar
     6    4    5 1
     7    4   11 ar
     8    6    7 1
     9    6    8 1
    10    6   13 1
    11    9   10 1
    12    9   15 ar
    13   11   12 1
    14   11   15 ar
    15   13   14 1
    16   13   17 1
    17   13   21 1
    18   15   16 1
    19   17   18 1
    20   17   19 1
    21   17   20 1
    22   21   22 1
    23   21   23 1
