@<TRIPOS>MOLECULE
DB00727
   20    19     0     0     0
SMALL
USER_CHARGES

@<TRIPOS>ATOM
      1 O1          1.5415   -1.4133   -0.4393 O.3       1 <0>        -0.2710
      2 O2         -1.8444   -0.4605    0.4944 O.3       1 <0>        -0.2710
      3 O3         -0.1267    1.7376    0.4424 O.3       1 <0>        -0.2710
      4 O4          3.5801   -2.2451   -0.2828 O.2       1 <0>        -0.5200
      5 O5          2.9146   -0.7574    1.2383 O.2       1 <0>        -0.5200
      6 O6         -4.0305   -0.3391    0.7794 O.2       1 <0>        -0.5200
      7 O7         -0.7796    3.8336    0.6823 O.2       1 <0>        -0.5200
      8 O8         -3.2215   -1.8342   -0.6653 O.2       1 <0>        -0.5200
      9 O9          0.7447    3.3598   -0.8762 O.2       1 <0>        -0.5200
     10 N1          2.7829   -1.4726    0.2451 N.pl3     1 <0>         1.0310
     11 N2         -3.1421   -0.9279    0.1665 N.pl3     1 <0>         1.0310
     12 N3         -0.0359    3.0945    0.0396 N.pl3     1 <0>         1.0310
     13 C1          0.5635   -0.5736    0.1870 C.3       1 <0>         0.2800
     14 H1          0.6112   -0.6155    1.2837 H         1 <0>         0.0000
     15 C2         -0.8119   -1.1409   -0.2132 C.3       1 <0>         0.2800
     16 H2         -0.8331   -2.2106    0.0312 H         1 <0>         0.0000
     17 H3         -0.9479   -1.0353   -1.2978 H         1 <0>         0.0000
     18 C3          0.7387    0.8783   -0.2955 C.3       1 <0>         0.2800
     19 H4          0.5162    0.9316   -1.3690 H         1 <0>         0.0000
     20 H5          1.7802    1.1906   -0.1510 H         1 <0>         0.0000
@<TRIPOS>BOND
     1    1   10 1
     2    1   13 1
     3    2   11 1
     4    2   15 1
     5    3   12 1
     6    3   18 1
     7    4   10 2
     8    5   10 2
     9    6   11 2
    10    7   12 2
    11    8   11 2
    12    9   12 2
    13   13   14 1
    14   13   15 1
    15   13   18 1
    16   15   16 1
    17   15   17 1
    18   18   19 1
    19   18   20 1
