@<TRIPOS>MOLECULE
DB00148
   18    17     0     0     0
SMALL
USER_CHARGES

@<TRIPOS>ATOM
      1 O1          3.2093    0.6943    0.0156 O.3       1 <0>        -0.6500
      2 H1          3.7240    0.8498   -0.8045 H         1 <0>         0.5000
      3 O2          1.8689   -0.0602   -1.6019 O.2       1 <0>        -0.5700
      4 N1         -0.2808   -0.3169    0.2667 N.pl3     1 <0>        -0.7880
      5 N2         -2.3645    0.5823   -0.2478 N.pl3     1 <0>        -0.8500
      6 H2         -3.0091    1.3463   -0.3892 H         1 <0>         0.4000
      7 H3         -2.7300   -0.3451   -0.3908 H         1 <0>         0.4000
      8 N3         -0.6435    1.9960    0.3135 N.2       1 <0>        -0.8500
      9 H4         -1.4068    2.6494    0.1430 H         1 <0>         0.4000
     10 C1          1.1034   -0.1448    0.7376 C.3       1 <0>         0.4300
     11 H5          1.4642   -1.0540    1.2316 H         1 <0>         0.0000
     12 H6          1.1591    0.6625    1.4762 H         1 <0>         0.0000
     13 C2         -0.6820   -1.6790   -0.0485 C.3       1 <0>         0.3690
     14 H7         -1.4667   -2.0128    0.6390 H         1 <0>         0.0000
     15 H8         -1.0563   -1.7416   -1.0753 H         1 <0>         0.0000
     16 H9          0.1510   -2.3854    0.0316 H         1 <0>         0.0000
     17 C3         -1.0794    0.7919    0.1173 C.2       1 <0>         0.5500
     18 C4          2.0393    0.1672   -0.4141 C.2       1 <0>         0.6590
@<TRIPOS>BOND
     1    1    2 1
     2    1   18 1
     3    3   18 2
     4    4   10 1
     5    4   13 1
     6    4   17 1
     7    5    6 1
     8    5    7 1
     9    5   17 1
    10    8    9 1
    11    8   17 2
    12   10   11 1
    13   10   12 1
    14   10   18 1
    15   13   14 1
    16   13   15 1
    17   13   16 1
