@<TRIPOS>MOLECULE
DB00411
   26    24     0     0     0
SMALL
USER_CHARGES

@<TRIPOS>ATOM
      1 C1         -0.0716   -0.3015    0.5494 C.3       1 <0>         0.5030
      2 H1         -0.0695   -1.3935    0.4899 H         1 <0>         0.0000
      3 H2          0.0233   -0.0375    1.6106 H         1 <0>         0.0000
      4 N1         -1.4564    0.1923    0.0836 N.4       1 <0>        -1.0120
      5 C2         -1.6985   -0.1435   -1.3859 C.3       1 <0>         0.5030
      6 H3         -1.0300    0.4666   -1.9997 H         1 <0>         0.0000
      7 H4         -2.7381    0.0953   -1.6273 H         1 <0>         0.0000
      8 H5         -1.5022   -1.2048   -1.5414 H         1 <0>         0.0000
      9 C3         -1.6238    1.6866    0.3072 C.3       1 <0>         0.5030
     10 H6         -0.9381    2.2243   -0.3514 H         1 <0>         0.0000
     11 H7         -1.4077    1.9077    1.3565 H         1 <0>         0.0000
     12 H8         -2.6564    1.9596    0.0652 H         1 <0>         0.0000
     13 C4         -2.5128   -0.5454    0.9157 C.3       1 <0>         0.5030
     14 H9         -2.4140   -1.6177    0.7397 H         1 <0>         0.0000
     15 H10        -3.5026   -0.1992    0.6048 H         1 <0>         0.0000
     16 H11        -2.3424   -0.3114    1.9704 H         1 <0>         0.0000
     17 C5          1.1052    0.2665   -0.2447 C.3       1 <0>         0.2800
     18 H12         1.1047    1.3607   -0.2147 H         1 <0>         0.0000
     19 H13         1.0723   -0.0759   -1.2844 H         1 <0>         0.0000
     20 O1          2.3213   -0.2095    0.3576 O.3       1 <0>        -0.4300
     21 C6          3.4526    0.2553   -0.2275 C.2       1 <0>         0.7800
     22 N2          4.5401   -0.2663    0.3900 N.am      1 <0>        -0.8000
     23 H14         5.4660   -0.0149    0.0730 H         1 <0>         0.3700
     24 H15         4.4271   -0.9084    1.1619 H         1 <0>         0.3700
     25 O2          3.5052    1.0328   -1.1676 O.2       1 <0>        -0.5700
     26 Cl1        -1.0536   -4.2184   -0.6310 Cl        1 <0>        -1.0000
@<TRIPOS>BOND
     1    1    2 1
     2    1    3 1
     3    1    4 1
     4    1   17 1
     5    4    5 1
     6    4    9 1
     7    4   13 1
     8    5    6 1
     9    5    7 1
    10    5    8 1
    11    9   10 1
    12    9   11 1
    13    9   12 1
    14   13   14 1
    15   13   15 1
    16   13   16 1
    17   17   18 1
    18   17   19 1
    19   17   20 1
    20   20   21 1
    21   21   22 am
    22   21   25 2
    23   22   23 1
    24   22   24 1
