@<TRIPOS>MOLECULE
DB00564
   30    32     0     0     0
SMALL
USER_CHARGES

@<TRIPOS>ATOM
      1 O1         -0.8604    2.9691   -1.1722 O.2       1 <0>        -0.5700
      2 N1         -0.0142    0.9350   -0.3525 N.am      1 <0>        -0.2940
      3 N2          1.2972    2.5247   -1.4940 N.am      1 <0>        -0.8000
      4 H1          1.3875    3.4265   -1.9420 H         1 <0>         0.3700
      5 H2          2.1028    1.9176   -1.4658 H         1 <0>         0.3700
      6 C1          1.1332    0.1842    0.0689 C.ar      1 <0>         0.1170
      7 C2         -1.3008    0.3870   -0.0169 C.ar      1 <0>         0.1170
      8 C3          1.3332   -1.1767   -0.2207 C.ar      1 <0>         0.0280
      9 C4         -1.6789   -0.9383   -0.3027 C.ar      1 <0>         0.0280
     10 C5          0.4496   -1.9637   -1.0757 C.2       1 <0>        -0.1780
     11 H3          0.9273   -2.7087   -1.7081 H         1 <0>         0.1500
     12 C6         -0.8783   -1.8602   -1.1063 C.2       1 <0>        -0.1780
     13 H4         -1.4318   -2.5248   -1.7663 H         1 <0>         0.1500
     14 C7          2.1016    0.8576    0.8462 C.ar      1 <0>        -0.1500
     15 H5          1.9526    1.8999    1.1243 H         1 <0>         0.1500
     16 C8         -2.2305    1.2211    0.6392 C.ar      1 <0>        -0.1500
     17 H6         -1.9692    2.2476    0.8887 H         1 <0>         0.1500
     18 C9          2.5020   -1.8146    0.2384 C.ar      1 <0>        -0.1500
     19 H7          2.6833   -2.8621    0.0076 H         1 <0>         0.1500
     20 C10        -2.9587   -1.3904    0.0774 C.ar      1 <0>        -0.1500
     21 H8         -3.2726   -2.4087   -0.1501 H         1 <0>         0.1500
     22 C11         0.0727    2.1867   -0.9823 C.2       1 <0>         0.6900
     23 C12         3.2487    0.2096    1.3049 C.ar      1 <0>        -0.1500
     24 H9          3.9771    0.7488    1.9048 H         1 <0>         0.1500
     25 C13        -3.4910    0.7564    1.0173 C.ar      1 <0>        -0.1500
     26 H10        -4.1839    1.4206    1.5282 H         1 <0>         0.1500
     27 C14         3.4502   -1.1285    0.9973 C.ar      1 <0>        -0.1500
     28 H11         4.3421   -1.6413    1.3473 H         1 <0>         0.1500
     29 C15        -3.8546   -0.5530    0.7392 C.ar      1 <0>        -0.1500
     30 H12        -4.8363   -0.9214    1.0260 H         1 <0>         0.1500
@<TRIPOS>BOND
     1    1   22 2
     2    2    6 1
     3    2    7 1
     4    2   22 am
     5    3    4 1
     6    3    5 1
     7    3   22 am
     8    6    8 ar
     9    6   14 ar
    10    7    9 ar
    11    7   16 ar
    12    8   10 1
    13    8   18 ar
    14    9   12 1
    15    9   20 ar
    16   10   11 1
    17   10   12 2
    18   12   13 1
    19   14   15 1
    20   14   23 ar
    21   16   17 1
    22   16   25 ar
    23   18   19 1
    24   18   27 ar
    25   20   21 1
    26   20   29 ar
    27   23   24 1
    28   23   27 ar
    29   25   26 1
    30   25   29 ar
    31   27   28 1
    32   29   30 1
