@<TRIPOS>MOLECULE
DB00797
   24    25     0     0     0
SMALL
USER_CHARGES

@<TRIPOS>ATOM
      1 N1         -1.7391   -0.8428   -0.5382 N.pl3     1 <0>        -0.8190
      2 H1         -1.2170   -1.5834   -0.9854 H         1 <0>         0.4000
      3 N2         -2.1892    0.7402    1.0250 N.2       1 <0>        -0.6960
      4 C1         -1.3910   -0.2158    0.6211 C.2       1 <0>         0.4390
      5 C2         -2.9573   -0.2970   -1.0539 C.3       1 <0>         0.3690
      6 H2         -2.8196    0.1229   -2.0541 H         1 <0>         0.0000
      7 H3         -3.7511   -1.0492   -1.0823 H         1 <0>         0.0000
      8 C3         -0.1563   -0.5959    1.3955 C.3       1 <0>         0.2040
      9 H4         -0.1732   -0.1114    2.3784 H         1 <0>         0.0000
     10 H5         -0.1893   -1.6778    1.5727 H         1 <0>         0.0000
     11 C4         -3.2577    0.7975   -0.0189 C.3       1 <0>         0.2460
     12 H6         -4.2347    0.6386    0.4490 H         1 <0>         0.0000
     13 H7         -3.2569    1.7886   -0.4843 H         1 <0>         0.0000
     14 C5          1.1122   -0.2146    0.6738 C.ar      1 <0>        -0.1440
     15 C6          1.9816   -1.1985    0.1825 C.ar      1 <0>        -0.1500
     16 H8          1.7556   -2.2532    0.3189 H         1 <0>         0.1500
     17 C7          1.4376    1.1367    0.4828 C.ar      1 <0>        -0.1500
     18 H9          0.7758    1.9164    0.8564 H         1 <0>         0.1500
     19 C8          3.1516   -0.8367   -0.4877 C.ar      1 <0>        -0.1500
     20 H10         3.8204   -1.6054   -0.8652 H         1 <0>         0.1500
     21 C9          2.6077    1.4960   -0.1874 C.ar      1 <0>        -0.1500
     22 H11         2.8503    2.5458   -0.3312 H         1 <0>         0.1500
     23 C10         3.4643    0.5091   -0.6725 C.ar      1 <0>        -0.1500
     24 H12         4.3755    0.7898   -1.1951 H         1 <0>         0.1500
@<TRIPOS>BOND
     1    1    2 1
     2    1    4 1
     3    1    5 1
     4    3    4 2
     5    3   11 1
     6    4    8 1
     7    5    6 1
     8    5    7 1
     9    5   11 1
    10    8    9 1
    11    8   10 1
    12    8   14 1
    13   11   12 1
    14   11   13 1
    15   14   15 ar
    16   14   17 ar
    17   15   16 1
    18   15   19 ar
    19   17   18 1
    20   17   21 ar
    21   19   20 1
    22   19   23 ar
    23   21   22 1
    24   21   23 ar
    25   23   24 1
