@<TRIPOS>MOLECULE
DB00141
   30    29     0     0     0
SMALL
USER_CHARGES

@<TRIPOS>ATOM
      1 C1         -2.0099    2.2564    0.0104 C.2       1 <0>         0.4490
      2 C2         -1.2340    1.0368   -0.4663 C.3       1 <0>         0.3610
      3 H1         -1.2860    1.0230   -1.5611 H         1 <0>         0.0000
      4 C3          0.2488    1.1322   -0.0205 C.3       1 <0>         0.2800
      5 H2          0.7468    1.8946   -0.6292 H         1 <0>         0.0000
      6 C4          0.9893   -0.2160   -0.1077 C.3       1 <0>         0.2800
      7 H3          0.7671   -0.6968   -1.0679 H         1 <0>         0.0000
      8 C5          2.5136   -0.0722    0.0562 C.3       1 <0>         0.2800
      9 H4          2.7734    0.3788    1.0206 H         1 <0>         0.0000
     10 O1         -1.4694    3.3355    0.2516 O.2       1 <0>        -0.5700
     11 O2          0.3474    1.5484    1.3574 O.3       1 <0>        -0.6800
     12 H5         -0.0060    2.4642    1.3936 H         1 <0>         0.4000
     13 O3          0.4814   -1.0444    0.9560 O.3       1 <0>        -0.6800
     14 H6          0.5463   -0.4736    1.7548 H         1 <0>         0.4000
     15 O4          3.0687    0.7554   -0.9757 O.3       1 <0>        -0.6800
     16 H7          3.0119    1.6793   -0.6704 H         1 <0>         0.4000
     17 H8         -3.1083    2.1664    0.0372 H         1 <0>         0.0600
     18 C6          3.2174   -1.4302   -0.0401 C.3       1 <0>         0.2800
     19 H9          2.9890   -1.9290   -0.9881 H         1 <0>         0.0000
     20 H10         2.9454   -2.0930    0.7856 H         1 <0>         0.0000
     21 O5          4.6299   -1.2164   -0.0065 O.3       1 <0>        -0.6800
     22 H11         4.7744   -0.4718   -0.6249 H         1 <0>         0.4000
     23 N1         -1.9102   -0.1699   -0.0043 N.am      1 <0>        -0.7300
     24 H12        -1.4294   -0.7305    0.7024 H         1 <0>         0.3700
     25 C7         -3.1088   -0.6034   -0.5236 C.2       1 <0>         0.5690
     26 O6         -3.7481    0.0180   -1.3660 O.2       1 <0>        -0.5700
     27 C8         -3.5932   -1.8962    0.0730 C.3       1 <0>         0.0610
     28 H13        -2.7540   -2.5698    0.2725 H         1 <0>         0.0000
     29 H14        -4.2734   -2.3887   -0.6267 H         1 <0>         0.0000
     30 H15        -4.1200   -1.6871    1.0078 H         1 <0>         0.0000
@<TRIPOS>BOND
     1    1    2 1
     2    1   10 2
     3    1   17 1
     4    2    3 1
     5    2    4 1
     6    2   23 1
     7    4    5 1
     8    4    6 1
     9    4   11 1
    10    6    7 1
    11    6    8 1
    12    6   13 1
    13    8    9 1
    14    8   15 1
    15    8   18 1
    16   11   12 1
    17   13   14 1
    18   15   16 1
    19   18   19 1
    20   18   20 1
    21   18   21 1
    22   21   22 1
    23   23   24 1
    24   23   25 am
    25   25   26 2
    26   25   27 1
    27   27   28 1
    28   27   29 1
    29   27   30 1
