@<TRIPOS>MOLECULE
DB00791
   26    26     0     0     0
SMALL
USER_CHARGES

@<TRIPOS>ATOM
      1 Cl1         3.3484    2.9640   -0.5818 Cl        1 <0>        -0.2900
      2 Cl2         0.6847   -2.3015    2.1778 Cl        1 <0>        -0.2900
      3 O1         -0.9712    1.5901    1.7077 O.2       1 <0>        -0.5700
      4 O2         -4.9175    0.2188   -0.0593 O.2       1 <0>        -0.5700
      5 N1          0.5846   -0.0157   -0.1274 N.pl3     1 <0>        -0.8380
      6 N2         -2.9255    0.9162    0.7990 N.am      1 <0>        -0.4900
      7 H1         -3.4124    1.5104    1.4538 H         1 <0>         0.3700
      8 N3         -2.9849   -0.6175   -0.9237 N.am      1 <0>        -0.5390
      9 H2         -3.5308   -1.1764   -1.5694 H         1 <0>         0.3700
     10 C1          1.3874    1.2059    0.1342 C.3       1 <0>         0.3690
     11 H3          0.7460    2.0923    0.0504 H         1 <0>         0.0000
     12 H4          1.7637    1.1768    1.1632 H         1 <0>         0.0000
     13 C2          1.3101   -1.2937   -0.3008 C.3       1 <0>         0.3690
     14 H5          0.6548   -2.0758   -0.7029 H         1 <0>         0.0000
     15 H6          2.0968   -1.1753   -1.0538 H         1 <0>         0.0000
     16 C3         -0.8231    0.0319   -0.1365 C.2       1 <0>         0.1140
     17 C4          2.5397    1.3989   -0.8503 C.3       1 <0>         0.2900
     18 H7          3.3062    0.6283   -0.7312 H         1 <0>         0.0000
     19 H8          2.1843    1.3784   -1.8848 H         1 <0>         0.0000
     20 C5          1.9284   -1.7989    1.0035 C.3       1 <0>         0.2900
     21 H9          2.5503   -2.6771    0.8046 H         1 <0>         0.0000
     22 H10         2.5539   -1.0409    1.4824 H         1 <0>         0.0000
     23 C6         -1.5520    0.9141    0.8599 C.2       1 <0>         0.6160
     24 C7         -1.6192   -0.6824   -0.9494 C.2       1 <0>        -0.0410
     25 H11        -1.2119   -1.3477   -1.7034 H         1 <0>         0.1500
     26 C8         -3.6910    0.1767   -0.0617 C.2       1 <0>         0.6900
@<TRIPOS>BOND
     1    1   17 1
     2    2   20 1
     3    3   23 2
     4    4   26 2
     5    5   10 1
     6    5   13 1
     7    5   16 1
     8    6    7 1
     9    6   23 am
    10    6   26 am
    11    8    9 1
    12    8   24 1
    13    8   26 am
    14   10   11 1
    15   10   12 1
    16   10   17 1
    17   13   14 1
    18   13   15 1
    19   13   20 1
    20   16   23 1
    21   16   24 2
    22   17   18 1
    23   17   19 1
    24   20   21 1
    25   20   22 1
    26   24   25 1
