@<TRIPOS>MOLECULE
DB00161
   19    18     0     0     0
SMALL
USER_CHARGES

@<TRIPOS>ATOM
      1 O1         -0.8670    1.6480   -1.2165 O.2       1 <0>        -0.5700
      2 C1         -1.3355    0.8430   -0.4301 C.2       1 <0>         0.6590
      3 O2         -2.6572    0.5425   -0.4734 O.3       1 <0>        -0.6500
      4 H1         -3.0095    1.0809   -1.2140 H         1 <0>         0.5000
      5 C2         -0.6017    0.1233    0.7125 C.3       1 <0>         0.3310
      6 H2         -0.6192    0.8105    1.5665 H         1 <0>         0.0000
      7 N1         -1.3694   -1.0790    1.1191 N.3       1 <0>        -0.9900
      8 H3         -1.3599   -1.7592    0.3591 H         1 <0>         0.3600
      9 H4         -2.3528   -0.7938    1.1820 H         1 <0>         0.3600
     10 C3          0.8631   -0.2586    0.3942 C.3       1 <0>         0.0000
     11 H5          1.2370   -0.8545    1.2400 H         1 <0>         0.0000
     12 C4          1.7708    0.9741    0.3112 C.3       1 <0>         0.0000
     13 H6          1.5585    1.5858   -0.5698 H         1 <0>         0.0000
     14 H7          2.8213    0.6697    0.2523 H         1 <0>         0.0000
     15 H8          1.6592    1.6024    1.2011 H         1 <0>         0.0000
     16 C5          1.0266   -1.1154   -0.8655 C.3       1 <0>         0.0000
     17 H9          0.6921   -0.5858   -1.7633 H         1 <0>         0.0000
     18 H10         0.4648   -2.0520   -0.7928 H         1 <0>         0.0000
     19 H11         2.0787   -1.3820   -1.0126 H         1 <0>         0.0000
@<TRIPOS>BOND
     1    1    2 2
     2    2    3 1
     3    2    5 1
     4    3    4 1
     5    5    6 1
     6    5    7 1
     7    5   10 1
     8    7    8 1
     9    7    9 1
    10   10   11 1
    11   10   12 1
    12   10   16 1
    13   12   13 1
    14   12   14 1
    15   12   15 1
    16   16   17 1
    17   16   18 1
    18   16   19 1
