@<TRIPOS>MOLECULE
DB00742
   26    25     0     0     0
SMALL
USER_CHARGES

@<TRIPOS>ATOM
      1 C1          3.0749   -0.0474    0.2516 C.3       1 <0>         0.2800
      2 H1          3.5015   -0.0341   -0.7566 H         1 <0>         0.0000
      3 H2          3.2221   -1.0398    0.6877 H         1 <0>         0.0000
      4 C2          1.6005    0.3564    0.2307 C.3       1 <0>         0.2800
      5 H3          1.2187    0.3243    1.2570 H         1 <0>         0.0000
      6 C3          0.7513   -0.5322   -0.6998 C.3       1 <0>         0.2800
      7 H4          1.1442   -0.4437   -1.7214 H         1 <0>         0.0000
      8 C4         -0.7333   -0.0864   -0.7407 C.3       1 <0>         0.2800
      9 H5         -1.1955   -0.5585   -1.6171 H         1 <0>         0.0000
     10 C5         -1.5359   -0.5139    0.5136 C.3       1 <0>         0.2800
     11 H6         -1.1164   -0.0092    1.3910 H         1 <0>         0.0000
     12 C6         -3.0099   -0.1083    0.3974 C.3       1 <0>         0.2800
     13 H7         -3.5218   -0.2617    1.3534 H         1 <0>         0.0000
     14 H8         -3.5233   -0.7161   -0.3559 H         1 <0>         0.0000
     15 O1          3.7969    0.9060    1.0297 O.3       1 <0>        -0.6800
     16 H9          3.3999    1.7675    0.7798 H         1 <0>         0.4000
     17 O2          1.5604    1.7309   -0.1907 O.3       1 <0>        -0.6800
     18 H10         0.6317    1.8887   -0.5019 H         1 <0>         0.4000
     19 O3          0.8137   -1.9097   -0.3054 O.3       1 <0>        -0.6800
     20 H11         1.6373   -2.2825   -0.6741 H         1 <0>         0.4000
     21 O4         -0.7925    1.3398   -0.9210 O.3       1 <0>        -0.6800
     22 H12        -1.7307    1.5881   -0.7017 H         1 <0>         0.4000
     23 O5         -1.4657   -1.9234    0.7292 O.3       1 <0>        -0.6800
     24 H13        -0.5506   -2.1956    0.4652 H         1 <0>         0.4000
     25 O6         -3.1143    1.2677    0.0232 O.3       1 <0>        -0.6800
     26 H14        -4.0632    1.4930    0.0771 H         1 <0>         0.4000
@<TRIPOS>BOND
     1    1    2 1
     2    1    3 1
     3    1    4 1
     4    1   15 1
     5    4    5 1
     6    4    6 1
     7    4   17 1
     8    6    7 1
     9    6    8 1
    10    6   19 1
    11    8    9 1
    12    8   10 1
    13    8   21 1
    14   10   11 1
    15   10   12 1
    16   10   23 1
    17   12   13 1
    18   12   14 1
    19   12   25 1
    20   15   16 1
    21   17   18 1
    22   19   20 1
    23   21   22 1
    24   23   24 1
    25   25   26 1
