@<TRIPOS>MOLECULE
DB00909
   22    23     0     0     0
SMALL
USER_CHARGES

@<TRIPOS>ATOM
      1 S1          2.7683    0.7075    0.6100 S.o2      1 <0>         1.3330
      2 O1         -0.5568   -2.1507   -0.4488 O.3       1 <0>        -0.0190
      3 O2          3.9706    1.4292    0.2506 O.2       1 <0>        -0.6500
      4 O3          1.9277    1.1399    1.7042 O.2       1 <0>        -0.6500
      5 N1          0.7070   -1.6436   -0.7097 N.2       1 <0>        -0.4100
      6 N2          3.2335   -0.8868    0.9020 N.pl3     1 <0>        -0.9780
      7 H1          4.0698   -1.1828    0.3926 H         1 <0>         0.4200
      8 H2          2.4692   -1.5708    0.8966 H         1 <0>         0.4200
      9 C1          1.7655    0.5529   -0.8674 C.3       1 <0>         0.2860
     10 H3          1.4673    1.5686   -1.1499 H         1 <0>         0.0000
     11 H4          2.4077    0.1599   -1.6619 H         1 <0>         0.0000
     12 C2          0.5832   -0.3095   -0.6407 C.2       1 <0>         0.1080
     13 C3         -0.7441    0.0765   -0.3273 C.ar      1 <0>         0.0000
     14 C4         -1.4205   -1.1267   -0.2208 C.ar      1 <0>         0.1400
     15 C5         -1.4517    1.2719   -0.1178 C.ar      1 <0>        -0.1500
     16 H5         -0.9611    2.2390   -0.1800 H         1 <0>         0.1500
     17 C6         -2.7750   -1.2435    0.0776 C.ar      1 <0>        -0.1500
     18 H6         -3.2629   -2.2085    0.1504 H         1 <0>         0.1500
     19 C7         -2.8188    1.1910    0.1867 C.ar      1 <0>        -0.1500
     20 H7         -3.3838    2.1059    0.3542 H         1 <0>         0.1500
     21 C8         -3.4671   -0.0454    0.2803 C.ar      1 <0>        -0.1500
     22 H8         -4.5278   -0.0740    0.5190 H         1 <0>         0.1500
@<TRIPOS>BOND
     1    1    3 2
     2    1    4 2
     3    1    6 1
     4    1    9 1
     5    2    5 1
     6    2   14 1
     7    5   12 2
     8    6    7 1
     9    6    8 1
    10    9   10 1
    11    9   11 1
    12    9   12 1
    13   12   13 1
    14   13   14 ar
    15   13   15 ar
    16   14   17 ar
    17   15   16 1
    18   15   19 ar
    19   17   18 1
    20   17   21 ar
    21   19   20 1
    22   19   21 ar
    23   21   22 1
