@<TRIPOS>MOLECULE
DB00672
   30    30     0     0     0
SMALL
USER_CHARGES

@<TRIPOS>ATOM
      1 Cl1        -5.2717   -2.8027   -1.0196 Cl        1 <0>        -0.1770
      2 S1         -1.6036    1.8397    1.0587 S.o2      1 <0>         1.4470
      3 O1         -2.2427    3.0805    0.6664 O.2       1 <0>        -0.6500
      4 O2         -1.2814    1.5823    2.4459 O.2       1 <0>        -0.6500
      5 O3          0.5156   -0.3455    0.8754 O.2       1 <0>        -0.5700
      6 N1         -0.2265    1.7000    0.1143 N.am      1 <0>        -0.7940
      7 H1         -0.0890    2.4709   -0.5320 H         1 <0>         0.4200
      8 N2          1.7161    0.7907   -0.7119 N.am      1 <0>        -0.7300
      9 H2          1.7729    1.6275   -1.2728 H         1 <0>         0.3700
     10 C1          2.7648   -0.1999   -0.8506 C.3       1 <0>         0.3000
     11 H3          2.3226   -1.1993   -0.7723 H         1 <0>         0.0000
     12 H4          3.1812   -0.0896   -1.8568 H         1 <0>         0.0000
     13 C2         -2.6220    0.5179    0.4587 C.ar      1 <0>        -0.0090
     14 C3          3.8526   -0.0121    0.2026 C.3       1 <0>         0.0000
     15 H5          4.2757    0.9966    0.1236 H         1 <0>         0.0000
     16 H6          3.4234   -0.0939    1.2085 H         1 <0>         0.0000
     17 C4          0.6688    0.6284    0.1533 C.2       1 <0>         0.8660
     18 C5         -2.6407   -0.7037    1.1372 C.ar      1 <0>        -0.1500
     19 H7         -2.0142   -0.8676    2.0110 H         1 <0>         0.1500
     20 C6         -3.4349    0.7298   -0.6593 C.ar      1 <0>        -0.1500
     21 H8         -3.4393    1.6864   -1.1767 H         1 <0>         0.1500
     22 C7          4.9628   -1.0381    0.0473 C.3       1 <0>         0.0000
     23 H9          5.4392   -0.9554   -0.9349 H         1 <0>         0.0000
     24 H10         4.5734   -2.0564    0.1556 H         1 <0>         0.0000
     25 H11         5.7308   -0.8861    0.8119 H         1 <0>         0.0000
     26 C8         -3.4617   -1.7330    0.6750 C.ar      1 <0>        -0.1500
     27 H12        -3.4704   -2.6881    1.1960 H         1 <0>         0.1500
     28 C9         -4.2546   -0.3038   -1.1168 C.ar      1 <0>        -0.1500
     29 H13        -4.8841   -0.1452   -1.9885 H         1 <0>         0.1500
     30 C10        -4.2629   -1.5302   -0.4492 C.ar      1 <0>         0.1770
@<TRIPOS>BOND
     1    1   30 1
     2    2    3 2
     3    2    4 2
     4    2    6 1
     5    2   13 1
     6    5   17 2
     7    6    7 1
     8    6   17 am
     9    8    9 1
    10    8   10 1
    11    8   17 am
    12   10   11 1
    13   10   12 1
    14   10   14 1
    15   13   18 ar
    16   13   20 ar
    17   14   15 1
    18   14   16 1
    19   14   22 1
    20   18   19 1
    21   18   26 ar
    22   20   21 1
    23   20   28 ar
    24   22   23 1
    25   22   24 1
    26   22   25 1
    27   26   27 1
    28   26   30 ar
    29   28   29 1
    30   28   30 ar
