@<TRIPOS>MOLECULE
DB00156
   17    16     0     0     0
SMALL
USER_CHARGES

@<TRIPOS>ATOM
      1 O1          1.7166    1.6931   -0.2375 O.2       1 <0>        -0.5700
      2 C1          1.6378    0.4767   -0.3160 C.2       1 <0>         0.6590
      3 O2          2.7500   -0.2942   -0.3246 O.3       1 <0>        -0.6500
      4 H1          3.5017    0.3334   -0.2657 H         1 <0>         0.5000
      5 C2          0.3552   -0.3455   -0.4176 C.3       1 <0>         0.3310
      6 H2          0.2818   -0.7038   -1.4506 H         1 <0>         0.0000
      7 N1          0.4503   -1.5112    0.4881 N.3       1 <0>        -0.9900
      8 H3          0.3174   -1.1788    1.4458 H         1 <0>         0.3600
      9 H4          1.4077   -1.8712    0.4357 H         1 <0>         0.3600
     10 C3         -0.8634    0.5434   -0.0904 C.3       1 <0>         0.2800
     11 H5         -0.8808    1.4160   -0.7553 H         1 <0>         0.0000
     12 O3         -0.7779    1.0320    1.2546 O.3       1 <0>        -0.6800
     13 H6         -0.0997    1.7352    1.2555 H         1 <0>         0.4000
     14 C4         -2.1880   -0.1962   -0.2348 C.3       1 <0>         0.0000
     15 H7         -2.2796   -1.0069    0.4949 H         1 <0>         0.0000
     16 H8         -2.3057   -0.6084   -1.2415 H         1 <0>         0.0000
     17 H9         -3.0234    0.4864   -0.0407 H         1 <0>         0.0000
@<TRIPOS>BOND
     1    1    2 2
     2    2    3 1
     3    2    5 1
     4    3    4 1
     5    5    6 1
     6    5    7 1
     7    5   10 1
     8    7    8 1
     9    7    9 1
    10   10   11 1
    11   10   12 1
    12   10   14 1
    13   12   13 1
    14   14   15 1
    15   14   16 1
    16   14   17 1
