@<TRIPOS>MOLECULE
DB00630
   27    26     0     0     0
SMALL
USER_CHARGES

@<TRIPOS>ATOM
      1 P1          1.0643    1.6935   -0.4353 P.3       1 <0>         1.2420
      2 P2          2.3035   -1.1173   -0.3762 P.3       1 <0>         1.2420
      3 O1          0.9986   -0.0063    1.5771 O.3       1 <0>        -0.6800
      4 H1          1.9622    0.0444    1.7738 H         1 <0>         0.4000
      5 O2          0.1623    2.5987    0.5429 O.3       1 <0>        -0.7710
      6 H2          0.0614    3.5298    0.2716 H         1 <0>         0.5000
      7 O3          2.5404    2.1522    0.0112 O.3       1 <0>        -0.7710
      8 H3          2.8355    3.0099   -0.3504 H         1 <0>         0.5000
      9 O4          3.4197   -0.7916    0.7430 O.3       1 <0>        -0.7710
     10 H4          4.3035   -1.1696    0.5587 H         1 <0>         0.5000
     11 O5          1.9055   -2.6197    0.0363 O.3       1 <0>        -0.7710
     12 H5          2.5301   -3.3112   -0.2533 H         1 <0>         0.5000
     13 O6          0.7854    1.9629   -1.8786 O.2       1 <0>        -0.7000
     14 O7          2.8093   -1.0043   -1.7752 O.2       1 <0>        -0.7000
     15 N1         -4.1268   -0.0396    0.4027 N.3       1 <0>        -0.9900
     16 H6         -4.9616   -0.5712    0.1585 H         1 <0>         0.3600
     17 H7         -4.2124    0.8609   -0.0673 H         1 <0>         0.3600
     18 C1          0.9053   -0.0356    0.1317 C.3       1 <0>         0.2800
     19 C2         -0.4332   -0.6779   -0.2726 C.3       1 <0>         0.0000
     20 H8         -0.4661   -1.7001    0.1220 H         1 <0>         0.0000
     21 H9         -0.4733   -0.7562   -1.3659 H         1 <0>         0.0000
     22 C3         -1.6788    0.0573    0.2301 C.3       1 <0>         0.0000
     23 H10        -1.7483    1.0396   -0.2494 H         1 <0>         0.0000
     24 H11        -1.6078    0.2224    1.3127 H         1 <0>         0.0000
     25 C4         -2.9454   -0.7428   -0.0823 C.3       1 <0>         0.2700
     26 H12        -3.0360   -0.9021   -1.1629 H         1 <0>         0.0000
     27 H13        -2.8973   -1.7261    0.3971 H         1 <0>         0.0000
@<TRIPOS>BOND
     1    1    5 1
     2    1    7 1
     3    1   13 2
     4    1   18 1
     5    2    9 1
     6    2   11 1
     7    2   14 2
     8    2   18 1
     9    3    4 1
    10    3   18 1
    11    5    6 1
    12    7    8 1
    13    9   10 1
    14   11   12 1
    15   15   16 1
    16   15   17 1
    17   15   25 1
    18   18   19 1
    19   19   20 1
    20   19   21 1
    21   19   22 1
    22   22   23 1
    23   22   24 1
    24   22   25 1
    25   25   26 1
    26   25   27 1
