@<TRIPOS>MOLECULE
DB00880
   23    24     0     0     0
SMALL
USER_CHARGES

@<TRIPOS>ATOM
      1 Cl1         2.1808    2.6338    0.3098 Cl        1 <0>        -0.1770
      2 S1         -2.2617   -1.7796   -0.0256 S.o2      1 <0>         1.4970
      3 S2          3.0134   -0.5501    0.4912 S.o2      1 <0>         1.4470
      4 O1         -2.2232   -2.4764    1.2462 O.2       1 <0>        -0.6500
      5 O2         -2.0011   -2.4892   -1.2640 O.2       1 <0>        -0.6500
      6 O3          3.0311   -1.9944    0.4088 O.2       1 <0>        -0.6500
      7 O4          3.6041    0.1499    1.6094 O.2       1 <0>        -0.6500
      8 N1         -2.6823    1.1772   -0.1094 N.pl3     1 <0>        -0.5500
      9 H1         -2.8858    2.1697   -0.1513 H         1 <0>         0.4000
     10 N2         -3.6824   -1.0072   -0.1553 N.2       1 <0>        -0.6380
     11 N3          3.7446   -0.0008   -0.9252 N.pl3     1 <0>        -0.9780
     12 H2          4.0852   -0.7692   -1.5085 H         1 <0>         0.4200
     13 H3          4.4390    0.7289   -0.7476 H         1 <0>         0.4200
     14 C1         -0.9917   -0.5533    0.0793 C.ar      1 <0>        -0.0090
     15 C2         -1.3494    0.7896    0.0208 C.ar      1 <0>         0.1000
     16 C3          1.3452    0.0012    0.2961 C.ar      1 <0>        -0.0090
     17 C4          0.3371   -0.9654    0.2191 C.ar      1 <0>        -0.1500
     18 H4          0.5687   -2.0279    0.2667 H         1 <0>         0.1500
     19 C5         -0.3274    1.7436    0.0995 C.ar      1 <0>        -0.1500
     20 H5         -0.5746    2.8029    0.0545 H         1 <0>         0.1500
     21 C6          1.0166    1.3596    0.2369 C.ar      1 <0>         0.1770
     22 C7         -3.7040    0.2772   -0.1802 C.2       1 <0>         0.4400
     23 H6         -4.6823    0.7800   -0.2713 H         1 <0>         0.0600
@<TRIPOS>BOND
     1    1   21 1
     2    2    4 2
     3    2    5 2
     4    2   10 1
     5    2   14 1
     6    3    6 2
     7    3    7 2
     8    3   11 1
     9    3   16 1
    10    8    9 1
    11    8   15 1
    12    8   22 1
    13   10   22 2
    14   11   12 1
    15   11   13 1
    16   14   15 ar
    17   14   17 ar
    18   15   19 ar
    19   16   17 ar
    20   16   21 ar
    21   17   18 1
    22   19   20 1
    23   19   21 ar
    24   22   23 1
