@<TRIPOS>MOLECULE
DB00526
   27    29     0     0     0
SMALL
USER_CHARGES

@<TRIPOS>ATOM
      1 C1         -1.7080   -1.4652    0.0413 C.3       1 <0>         0.0000
      2 H1         -1.4209   -1.7800   -0.9704 H         1 <0>         0.0000
      3 H2         -1.8967   -2.3794    0.6172 H         1 <0>         0.0000
      4 C2         -1.6254    1.4950   -0.1176 C.3       1 <0>         0.0000
      5 H3         -1.9126    1.8078    0.8953 H         1 <0>         0.0000
      6 H4         -1.4566    2.4102   -0.6975 H         1 <0>         0.0000
      7 C3         -2.7740    0.7003   -0.7411 C.3       1 <0>         0.0000
      8 H5         -3.6947    1.2929   -0.7008 H         1 <0>         0.0000
      9 H6         -2.5563    0.5205   -1.8017 H         1 <0>         0.0000
     10 C4         -2.9942   -0.6387   -0.0370 C.3       1 <0>         0.0000
     11 H7         -3.7665   -1.2100   -0.5651 H         1 <0>         0.0000
     12 H8         -3.3699   -0.4568    0.9772 H         1 <0>         0.0000
     13 C5         -0.3488    0.6542   -0.0732 C.3       1 <0>         0.2700
     14 H9         -0.0339    0.4364   -1.1027 H         1 <0>         0.0000
     15 C6         -0.5822   -0.6553    0.6862 C.3       1 <0>         0.2700
     16 H10        -0.8606   -0.4346    1.7253 H         1 <0>         0.0000
     17 N1          0.6771   -1.3895    0.7154 N.3       1 <0>        -0.8200
     18 H11         0.8722   -1.8080   -0.1922 H         1 <0>         0.3600
     19 N2          0.7461    1.3529    0.5858 N.3       1 <0>        -0.8200
     20 H12         0.4555    1.6830    1.5047 H         1 <0>         0.3600
     21 C7          4.4808    0.7398   -0.2074 C.2       1 <0>         0.7200
     22 C8          4.3733   -0.7693   -0.4329 C.2       1 <0>         0.7200
     23 Pt1         2.1135   -0.0400    0.9407 Pt        1 <0>         0.9600
     24 O1          3.4113    1.1936    0.4609 O.3       1 <0>        -0.4400
     25 O2          3.2354   -1.2463    0.0942 O.3       1 <0>        -0.4400
     26 O3          5.2155   -1.4240   -1.0163 O.2       1 <0>        -0.5700
     27 O4          5.4207    1.4103   -0.5884 O.2       1 <0>        -0.5700
@<TRIPOS>BOND
     1    1    2 1
     2    1    3 1
     3    1   10 1
     4    1   15 1
     5    4    5 1
     6    4    6 1
     7    4    7 1
     8    4   13 1
     9    7    8 1
    10    7    9 1
    11    7   10 1
    12   10   11 1
    13   10   12 1
    14   13   14 1
    15   13   15 1
    16   13   19 1
    17   15   16 1
    18   15   17 1
    19   17   18 1
    20   17   23 1
    21   19   20 1
    22   19   23 1
    23   21   22 1
    24   21   24 1
    25   21   27 2
    26   22   25 1
    27   22   26 2
    28   23   24 1
    29   23   25 1
