@<TRIPOS>MOLECULE
DB00313
   26    25     0     0     0
SMALL
USER_CHARGES

@<TRIPOS>ATOM
      1 C1         -3.0615   -1.3587   -0.1852 C.3       1 <0>         0.0000
      2 H1         -3.2237   -2.4268   -0.0056 H         1 <0>         0.0000
      3 H2         -3.2498   -1.1600   -1.2454 H         1 <0>         0.0000
      4 H3         -3.7943   -0.7995    0.4048 H         1 <0>         0.0000
      5 C2         -1.6409   -0.9707    0.1972 C.3       1 <0>         0.0000
      6 H4         -0.9447   -1.5793   -0.3896 H         1 <0>         0.0000
      7 H5         -1.4777   -1.2064    1.2546 H         1 <0>         0.0000
      8 C3         -1.3804    0.5160   -0.0518 C.3       1 <0>         0.0000
      9 H6         -2.1596    1.1040    0.4510 H         1 <0>         0.0000
     10 H7         -1.4891    0.7263   -1.1245 H         1 <0>         0.0000
     11 C4         -0.0033    0.9939    0.4432 C.3       1 <0>         0.0610
     12 H8          0.0755    0.7690    1.5160 H         1 <0>         0.0000
     13 C5          0.0621    2.5032    0.3380 C.2       1 <0>         0.6590
     14 C6          1.8450   -0.7692    0.4941 C.3       1 <0>         0.0000
     15 H9          2.2216   -0.3786    1.4470 H         1 <0>         0.0000
     16 H10         1.1136   -1.5476    0.7317 H         1 <0>         0.0000
     17 C7          2.9991   -1.3926   -0.2755 C.3       1 <0>         0.0000
     18 H11         3.7719   -0.6487   -0.4965 H         1 <0>         0.0000
     19 H12         2.6530   -1.8210   -1.2220 H         1 <0>         0.0000
     20 H13         3.4578   -2.1937    0.3124 H         1 <0>         0.0000
     21 C8          1.1894    0.3639   -0.3026 C.3       1 <0>         0.0000
     22 H14         1.9586    1.1222   -0.4987 H         1 <0>         0.0000
     23 H15         0.8701   -0.0081   -1.2836 H         1 <0>         0.0000
     24 O1         -0.0079    2.9549   -0.9293 O.3       1 <0>        -0.6500
     25 H16         0.0481    3.9306   -0.8559 H         1 <0>         0.5000
     26 O2          0.1673    3.2769    1.2759 O.2       1 <0>        -0.5700
@<TRIPOS>BOND
     1    1    2 1
     2    1    3 1
     3    1    4 1
     4    1    5 1
     5    5    6 1
     6    5    7 1
     7    5    8 1
     8    8    9 1
     9    8   10 1
    10    8   11 1
    11   11   12 1
    12   11   13 1
    13   11   21 1
    14   13   24 1
    15   13   26 2
    16   14   15 1
    17   14   16 1
    18   14   17 1
    19   14   21 1
    20   17   18 1
    21   17   19 1
    22   17   20 1
    23   21   22 1
    24   21   23 1
    25   24   25 1
