@<TRIPOS>MOLECULE
DB00853
   20    21     0     0     0
SMALL
USER_CHARGES

@<TRIPOS>ATOM
      1 O1         -2.1842   -1.9740    0.0001 O.2       1 <0>        -0.5700
      2 O2          2.8212    2.1592   -0.0010 O.2       1 <0>        -0.5700
      3 N1         -0.2748   -0.7861   -0.0015 N.am      1 <0>         0.2940
      4 N2         -2.2266    0.3834   -0.0003 N.am      1 <0>        -0.2980
      5 N3          1.8767   -1.3405   -0.0006 N.2       1 <0>        -0.5650
      6 N4         -0.2702    1.5612   -0.0019 N.2       1 <0>        -0.1260
      7 N5         -1.5229    1.5682   -0.0021 N.2       1 <0>        -0.0620
      8 N6          4.0915    0.2740    0.0016 N.am      1 <0>        -0.8000
      9 H1          4.9575    0.7944    0.0022 H         1 <0>         0.3700
     10 H2          4.1049   -0.7407    0.0017 H         1 <0>         0.3700
     11 C1          0.4084    0.3965   -0.0013 C.2       1 <0>        -0.0260
     12 C2          1.7451    0.0423   -0.0009 C.2       1 <0>         0.1410
     13 C3         -1.6515   -0.8752   -0.0011 C.2       1 <0>         0.6390
     14 C4          0.6462   -1.8003   -0.0009 C.2       1 <0>         0.0370
     15 H3          0.3572   -2.8446   -0.0003 H         1 <0>         0.1500
     16 C5         -3.6685    0.5269    0.0013 C.3       1 <0>         0.3000
     17 H4         -4.1674   -0.4461    0.0040 H         1 <0>         0.0000
     18 H5         -3.9691    1.0810   -0.8934 H         1 <0>         0.0000
     19 H6         -3.9663    1.0846    0.8946 H         1 <0>         0.0000
     20 C6          2.8926    0.9356   -0.0002 C.2       1 <0>         0.7160
@<TRIPOS>BOND
     1    1   13 2
     2    2   20 2
     3    3   11 1
     4    3   13 am
     5    3   14 1
     6    4    7 1
     7    4   13 am
     8    4   16 1
     9    5   12 1
    10    5   14 2
    11    6    7 2
    12    6   11 1
    13    8    9 1
    14    8   10 1
    15    8   20 am
    16   11   12 2
    17   12   20 1
    18   14   15 1
    19   16   17 1
    20   16   18 1
    21   16   19 1
