@<TRIPOS>MOLECULE
DB00205
   30    31     0     0     0
SMALL
USER_CHARGES

@<TRIPOS>ATOM
      1 Cl1        -5.6861   -0.4855   -0.0124 Cl        1 <0>        -0.1770
      2 N1          2.4959   -0.2254   -0.0050 N.ar      1 <0>        -0.6200
      3 N2          2.0629    2.1003   -0.0088 N.ar      1 <0>        -0.6200
      4 N3         -0.0709    2.9622   -0.0012 N.pl3     1 <0>        -0.9000
      5 H1          0.3944    3.8579   -0.0014 H         1 <0>         0.4000
      6 H2         -1.0769    2.9000    0.0009 H         1 <0>         0.4000
      7 N4          4.2362    1.3007   -0.0221 N.pl3     1 <0>        -0.9000
      8 H3          4.5468    2.2567   -0.0278 H         1 <0>         0.4000
      9 H4          4.8659    0.5158   -0.0251 H         1 <0>         0.4000
     10 C1          0.2184    0.5507   -0.0012 C.ar      1 <0>         0.0000
     11 C2          1.1675   -0.4740    0.0016 C.ar      1 <0>         0.1660
     12 C3          0.7432   -1.9288    0.0111 C.3       1 <0>         0.1440
     13 H5          0.1169   -2.1091    0.8934 H         1 <0>         0.0000
     14 H6          0.1364   -2.1255   -0.8809 H         1 <0>         0.0000
     15 C4         -1.2281    0.2925   -0.0031 C.ar      1 <0>         0.0000
     16 C5          0.7422    1.8455   -0.0026 C.ar      1 <0>         0.4100
     17 C6         -1.9412    0.2046    1.2028 C.ar      1 <0>        -0.1500
     18 H7         -1.4266    0.3240    2.1553 H         1 <0>         0.1500
     19 C7         -1.9254    0.1413   -1.2129 C.ar      1 <0>        -0.1500
     20 H8         -1.3985    0.2103   -2.1631 H         1 <0>         0.1500
     21 C8          1.8895   -2.9331    0.0346 C.3       1 <0>         0.0000
     22 H9          2.5133   -2.8052    0.9263 H         1 <0>         0.0000
     23 H10         2.5291   -2.8280   -0.8481 H         1 <0>         0.0000
     24 H11         1.4953   -3.9541    0.0439 H         1 <0>         0.0000
     25 C9          2.8909    1.0521   -0.0115 C.ar      1 <0>         0.7200
     26 C10        -3.3179   -0.0364    1.2014 C.ar      1 <0>        -0.1500
     27 H12        -3.8543   -0.1023    2.1440 H         1 <0>         0.1500
     28 C11        -3.3023   -0.1006   -1.2171 C.ar      1 <0>        -0.1500
     29 H13        -3.8255   -0.2177   -2.1622 H         1 <0>         0.1500
     30 C12        -3.9910   -0.1890   -0.0089 C.ar      1 <0>         0.1770
@<TRIPOS>BOND
     1    1   30 1
     2    2   11 ar
     3    2   25 ar
     4    3   16 ar
     5    3   25 ar
     6    4    5 1
     7    4    6 1
     8    4   16 1
     9    7    8 1
    10    7    9 1
    11    7   25 1
    12   10   11 ar
    13   10   15 1
    14   10   16 ar
    15   11   12 1
    16   12   13 1
    17   12   14 1
    18   12   21 1
    19   15   17 ar
    20   15   19 ar
    21   17   18 1
    22   17   26 ar
    23   19   20 1
    24   19   28 ar
    25   21   22 1
    26   21   23 1
    27   21   24 1
    28   26   27 1
    29   26   30 ar
    30   28   29 1
    31   28   30 ar
