@<TRIPOS>MOLECULE
DB00787
   27    28     0     0     0
SMALL
USER_CHARGES

@<TRIPOS>ATOM
      1 O1          2.0286   -0.3027   -0.0204 O.3       1 <0>        -0.5600
      2 O2         -4.3259   -2.7129    0.0635 O.2       1 <0>        -0.5700
      3 O3          5.4673    0.8430    0.0672 O.3       1 <0>        -0.6800
      4 H1          6.2973    0.3369    0.0893 H         1 <0>         0.4000
      5 N1         -0.2886   -0.6422   -0.0435 N.pl3     1 <0>         0.0480
      6 N2         -2.2807    0.7756   -0.0078 N.pl3     1 <0>        -0.5340
      7 H2         -1.8409    1.6850   -0.0242 H         1 <0>         0.4000
      8 N3         -1.3343   -2.6201   -0.0074 N.2       1 <0>        -0.5650
      9 N4         -4.3529   -0.4068    0.0441 N.2       1 <0>        -0.6610
     10 N5         -4.2739    1.9008    0.0231 N.pl3     1 <0>        -0.8500
     11 H3         -5.2873    1.9107    0.0408 H         1 <0>         0.4000
     12 H4         -3.7942    2.7873    0.0086 H         1 <0>         0.4000
     13 C1         -1.6201   -0.3889   -0.0147 C.2       1 <0>        -0.0680
     14 C2          0.7675    0.3462   -0.0730 C.3       1 <0>         0.5360
     15 H5          0.6329    0.9987    0.7968 H         1 <0>         0.0000
     16 H6          0.6634    0.9113   -1.0068 H         1 <0>         0.0000
     17 C3         -2.2547   -1.6001    0.0081 C.2       1 <0>         0.1410
     18 C4         -0.1624   -2.0110   -0.0378 C.2       1 <0>         0.0370
     19 H7          0.7995   -2.5072   -0.0575 H         1 <0>         0.1500
     20 C5         -3.7126   -1.6513    0.0409 C.2       1 <0>         0.8670
     21 C6         -3.6546    0.6970    0.0217 C.2       1 <0>         0.5500
     22 C7          3.0885    0.6454    0.0003 C.3       1 <0>         0.2800
     23 H8          3.0423    1.2870   -0.8883 H         1 <0>         0.0000
     24 H9          3.0007    1.2920    0.8820 H         1 <0>         0.0000
     25 C8          4.4093   -0.0982    0.0324 C.3       1 <0>         0.2800
     26 H10         4.5173   -0.7325   -0.8534 H         1 <0>         0.0000
     27 H11         4.4686   -0.7431    0.9160 H         1 <0>         0.0000
@<TRIPOS>BOND
     1    1   14 1
     2    1   22 1
     3    2   20 2
     4    3    4 1
     5    3   25 1
     6    5   13 1
     7    5   14 1
     8    5   18 1
     9    6    7 1
    10    6   13 1
    11    6   21 1
    12    8   17 1
    13    8   18 2
    14    9   20 1
    15    9   21 2
    16   10   11 1
    17   10   12 1
    18   10   21 1
    19   13   17 2
    20   14   15 1
    21   14   16 1
    22   17   20 1
    23   18   19 1
    24   22   23 1
    25   22   24 1
    26   22   25 1
    27   25   26 1
    28   25   27 1
