@<TRIPOS>MOLECULE
DB00170
   21    22     0     0     0
SMALL
USER_CHARGES

@<TRIPOS>ATOM
      1 O1          1.1491    2.2254    0.0050 O.2       1 <0>        -0.5700
      2 O2          0.0112   -2.9877    0.0017 O.2       1 <0>        -0.5700
      3 C1         -0.5236    0.5752    0.0009 C.ar      1 <0>         0.0860
      4 C2         -0.8299   -0.7849    0.0014 C.ar      1 <0>         0.0860
      5 C3          1.9464   -0.0023   -0.0008 C.2       1 <0>        -0.1240
      6 C4          0.8813    1.0285    0.0025 C.2       1 <0>         0.4690
      7 C5          0.2487   -1.7854    0.0011 C.2       1 <0>         0.4690
      8 C6          1.6345   -1.2984   -0.0012 C.2       1 <0>        -0.1360
      9 H1          2.3986   -2.0691   -0.0032 H         1 <0>         0.1500
     10 C7         -1.5574    1.5212   -0.0003 C.ar      1 <0>        -0.1500
     11 H2         -1.3321    2.5861   -0.0008 H         1 <0>         0.1500
     12 C8         -2.1652   -1.2052    0.0009 C.ar      1 <0>        -0.1500
     13 H3         -2.4120   -2.2653    0.0009 H         1 <0>         0.1500
     14 C9          3.3607    0.4941   -0.0009 C.3       1 <0>         0.1380
     15 H4          3.5539    1.1030   -0.8892 H         1 <0>         0.0000
     16 H5          4.0825   -0.3299   -0.0014 H         1 <0>         0.0000
     17 H6          3.5535    1.1018    0.8887 H         1 <0>         0.0000
     18 C10        -2.8885    1.1009   -0.0016 C.ar      1 <0>        -0.1500
     19 H7         -3.6898    1.8363   -0.0030 H         1 <0>         0.1500
     20 C11        -3.1920   -0.2597    0.0001 C.ar      1 <0>        -0.1500
     21 H8         -4.2298   -0.5846   -0.0007 H         1 <0>         0.1500
@<TRIPOS>BOND
     1    1    6 2
     2    2    7 2
     3    3    4 ar
     4    3    6 1
     5    3   10 ar
     6    4    7 1
     7    4   12 ar
     8    5    6 1
     9    5    8 2
    10    5   14 1
    11    7    8 1
    12    8    9 1
    13   10   11 1
    14   10   18 ar
    15   12   13 1
    16   12   20 ar
    17   14   15 1
    18   14   16 1
    19   14   17 1
    20   18   19 1
    21   18   20 ar
    22   20   21 1
