@<TRIPOS>MOLECULE
DB00943
   28    29     0     0     0
SMALL
USER_CHARGES

@<TRIPOS>ATOM
      1 O1         -1.1239   -0.1232    1.1638 O.3       1 <0>        -0.5600
      2 O2         -4.2805   -1.2481   -0.3400 O.3       1 <0>        -0.6800
      3 H1         -4.5070   -2.1183   -0.7119 H         1 <0>         0.4000
      4 O3          1.7582    2.6290    0.2722 O.2       1 <0>        -0.5700
      5 N1          1.0564    0.4477    0.3313 N.am      1 <0>        -0.4690
      6 N2          3.3521    1.0360    0.0340 N.2       1 <0>        -0.6610
      7 N3          4.9554   -0.5668   -0.2218 N.pl3     1 <0>        -0.8500
      8 H2          5.6394    0.1792   -0.2753 H         1 <0>         0.4000
      9 H3          5.2771   -1.5214   -0.2984 H         1 <0>         0.4000
     10 C1         -0.3143    0.8932    0.5435 C.3       1 <0>         0.5800
     11 H4         -0.3119    1.7538    1.2244 H         1 <0>         0.0000
     12 C2         -1.0335    1.2512   -0.7471 C.3       1 <0>         0.0000
     13 H5         -0.7517    2.2334   -1.1366 H         1 <0>         0.0000
     14 H6         -0.8351    0.5064   -1.5276 H         1 <0>         0.0000
     15 C3         -2.4783    1.1685   -0.3182 C.3       1 <0>         0.0000
     16 H7         -3.1710    1.0426   -1.1555 H         1 <0>         0.0000
     17 H8         -2.7541    2.0955    0.2007 H         1 <0>         0.0000
     18 C4         -2.4752    0.0126    0.6767 C.3       1 <0>         0.2800
     19 H9         -3.1288    0.2541    1.5221 H         1 <0>         0.0000
     20 C5         -2.9202   -1.3159    0.0664 C.3       1 <0>         0.2800
     21 H10        -2.8104   -2.1220    0.8000 H         1 <0>         0.0000
     22 H11        -2.2999   -1.5777   -0.7990 H         1 <0>         0.0000
     23 C6          1.3713   -0.8886    0.2270 C.2       1 <0>        -0.0410
     24 H12         0.5593   -1.6048    0.3079 H         1 <0>         0.1500
     25 C7          2.0473    1.4333    0.2162 C.2       1 <0>         0.8410
     26 C8          2.6249   -1.2918    0.0379 C.2       1 <0>        -0.1360
     27 H13         2.9095   -2.3302   -0.0448 H         1 <0>         0.1500
     28 C9          3.6448   -0.2278   -0.0480 C.2       1 <0>         0.4860
@<TRIPOS>BOND
     1    1   10 1
     2    1   18 1
     3    2    3 1
     4    2   20 1
     5    4   25 2
     6    5   10 1
     7    5   23 1
     8    5   25 am
     9    6   25 1
    10    6   28 2
    11    7    8 1
    12    7    9 1
    13    7   28 1
    14   10   11 1
    15   10   12 1
    16   12   13 1
    17   12   14 1
    18   12   15 1
    19   15   16 1
    20   15   17 1
    21   15   18 1
    22   18   19 1
    23   18   20 1
    24   20   21 1
    25   20   22 1
    26   23   24 1
    27   23   26 2
    28   26   27 1
    29   26   28 1
