@<TRIPOS>MOLECULE
DB00174
   17    16     0     0     0
SMALL
USER_CHARGES

@<TRIPOS>ATOM
      1 O1          2.6379   -0.3925   -0.7637 O.3       1 <0>        -0.6500
      2 H1          3.4081   -0.9961   -0.7038 H         1 <0>         0.5000
      3 O2          2.3719   -1.3572    1.2387 O.2       1 <0>        -0.5700
      4 O3         -1.8839    1.4229    0.4324 O.2       1 <0>        -0.5700
      5 N1          1.0036    1.6604   -0.0240 N.3       1 <0>        -0.9900
      6 H2          0.1182    2.1777   -0.0403 H         1 <0>         0.3600
      7 H3          1.3057    1.5622   -0.9951 H         1 <0>         0.3600
      8 N2         -2.8266   -0.5630   -0.1221 N.am      1 <0>        -0.8000
      9 H4         -3.7546   -0.1828    0.0226 H         1 <0>         0.3700
     10 H5         -2.7474   -1.5272   -0.4194 H         1 <0>         0.3700
     11 C1          0.7388    0.3193    0.5292 C.3       1 <0>         0.3310
     12 H6          0.5235    0.4426    1.5973 H         1 <0>         0.0000
     13 C2         -0.4143   -0.4020   -0.1715 C.3       1 <0>         0.0610
     14 H7         -0.4592   -1.4452    0.1669 H         1 <0>         0.0000
     15 H8         -0.2601   -0.4285   -1.2582 H         1 <0>         0.0000
     16 C3          1.9888   -0.5416    0.4149 C.2       1 <0>         0.6590
     17 C4         -1.7504    0.2510    0.0964 C.2       1 <0>         0.5690
@<TRIPOS>BOND
     1    1    2 1
     2    1   16 1
     3    3   16 2
     4    4   17 2
     5    5    6 1
     6    5    7 1
     7    5   11 1
     8    8    9 1
     9    8   10 1
    10    8   17 am
    11   11   12 1
    12   11   13 1
    13   11   16 1
    14   13   14 1
    15   13   15 1
    16   13   17 1
