@<TRIPOS>MOLECULE
DB00302
   26    26     0     0     0
SMALL
USER_CHARGES

@<TRIPOS>ATOM
      1 C1         -1.0656   -1.3669    0.1522 C.3       1 <0>         0.0000
      2 H1         -1.1628   -1.4656    1.2409 H         1 <0>         0.0000
      3 H2         -1.5930   -2.2239   -0.2841 H         1 <0>         0.0000
      4 C2          0.4120   -1.4315   -0.2276 C.3       1 <0>         0.0000
      5 H3          0.5024   -1.4789   -1.3202 H         1 <0>         0.0000
      6 H4          0.8403   -2.3613    0.1665 H         1 <0>         0.0000
      7 C3          0.5419    1.0872   -0.1541 C.3       1 <0>         0.0000
      8 H5          1.0430    1.9500    0.2984 H         1 <0>         0.0000
      9 H6          0.6506    1.1909   -1.2419 H         1 <0>         0.0000
     10 C4         -0.9411    1.1507    0.2096 C.3       1 <0>         0.0000
     11 H7         -1.3692    2.0775   -0.1911 H         1 <0>         0.0000
     12 H8         -1.0459    1.2106    1.3013 H         1 <0>         0.0000
     13 C5         -1.7124   -0.0599   -0.3203 C.3       1 <0>         0.0610
     14 H9         -1.7042   -0.0547   -1.4184 H         1 <0>         0.0000
     15 C6          1.1960   -0.2235    0.3122 C.3       1 <0>         0.0000
     16 H10         1.1526   -0.2572    1.4104 H         1 <0>         0.0000
     17 O1         -3.8223    1.0178   -0.4904 O.3       1 <0>        -0.6500
     18 H11        -4.7359    0.9665   -0.1382 H         1 <0>         0.5000
     19 C7         -3.1582    0.0122    0.1171 C.2       1 <0>         0.6590
     20 O2         -3.7253   -0.7214    0.9100 O.2       1 <0>        -0.5700
     21 C8          2.6701   -0.3319   -0.1171 C.3       1 <0>         0.2700
     22 H12         2.7559   -0.2754   -1.2087 H         1 <0>         0.0000
     23 H13         3.0684   -1.3053    0.1889 H         1 <0>         0.0000
     24 N1          3.5007    0.7062    0.4839 N.3       1 <0>        -0.9900
     25 H14         3.2322    1.6203    0.1228 H         1 <0>         0.3600
     26 H15         4.4700    0.5676    0.1981 H         1 <0>         0.3600
@<TRIPOS>BOND
     1    1    2 1
     2    1    3 1
     3    1    4 1
     4    1   13 1
     5    4    5 1
     6    4    6 1
     7    4   15 1
     8    7    8 1
     9    7    9 1
    10    7   10 1
    11    7   15 1
    12   10   11 1
    13   10   12 1
    14   10   13 1
    15   13   14 1
    16   13   19 1
    17   15   16 1
    18   15   21 1
    19   17   18 1
    20   17   19 1
    21   19   20 2
    22   21   22 1
    23   21   23 1
    24   21   24 1
    25   24   25 1
    26   24   26 1
