@<TRIPOS>MOLECULE
DB00653
    6     4     0     0     0
SMALL
USER_CHARGES

@<TRIPOS>ATOM
      1 Mg1         1.8736    0.0001   -0.0004 Mg        1 <0>         2.0000
      2 O1         -1.2555   -1.2284    0.0004 O.2       1 <0>        -0.9000
      3 O2         -1.2544    1.2292    0.0001 O.2       1 <0>        -0.9000
      4 O3          0.5612   -0.0002    1.0628 O.3       1 <0>        -0.9000
      5 S1         -0.4853   -0.0002   -0.0004 S.o2      1 <0>         1.6000
      6 O4          0.5604   -0.0005   -1.0625 O.3       1 <0>        -0.9000
@<TRIPOS>BOND
     1    2    5 2
     2    3    5 2
     3    4    5 1
     4    5    6 1
