@<TRIPOS>MOLECULE
DB00730
   21    23     0     0     0
SMALL
USER_CHARGES

@<TRIPOS>ATOM
      1 S1          4.8221   -0.6758   -0.0242 S.3       1 <0>        -0.0800
      2 N1          0.1183   -1.0407    0.0138 N.pl3     1 <0>         0.0330
      3 H1          0.4117   -2.0062    0.0254 H         1 <0>         0.2700
      4 N2          0.2368    1.1739   -0.0102 N.2       1 <0>        -0.5650
      5 N3          3.1032    1.2471    0.0297 N.2       1 <0>        -0.5650
      6 C1         -1.1837   -0.6055    0.0092 C.ar      1 <0>        -0.1520
      7 C2         -1.0791    0.7811   -0.0056 C.ar      1 <0>         0.2270
      8 C3          0.9395    0.0585    0.0009 C.2       1 <0>         0.1870
      9 C4          2.3886    0.0616   -0.0009 C.2       1 <0>         0.2260
     10 C5         -2.4039   -1.2828    0.0162 C.ar      1 <0>        -0.1500
     11 H2         -2.4631   -2.3656    0.0279 H         1 <0>         0.1500
     12 C6         -2.2494    1.5568   -0.0150 C.ar      1 <0>        -0.1500
     13 H3         -2.1862    2.6396   -0.0266 H         1 <0>         0.1500
     14 C7         -3.5601   -0.4922    0.0069 C.ar      1 <0>        -0.1500
     15 H4         -4.5355   -0.9756    0.0113 H         1 <0>         0.1500
     16 C8         -3.4875    0.9036   -0.0089 C.ar      1 <0>        -0.1500
     17 H5         -4.4037    1.4900   -0.0152 H         1 <0>         0.1500
     18 C9          3.1531   -1.0879   -0.0330 C.2       1 <0>        -0.1100
     19 H6          2.8502   -2.1243   -0.0623 H         1 <0>         0.1500
     20 C10         4.3899    0.9820    0.0202 C.2       1 <0>         0.2280
     21 H7          5.1386    1.7624    0.0404 H         1 <0>         0.1500
@<TRIPOS>BOND
     1    1   18 1
     2    1   20 1
     3    2    3 1
     4    2    6 1
     5    2    8 1
     6    4    7 1
     7    4    8 2
     8    5    9 1
     9    5   20 2
    10    6    7 ar
    11    6   10 ar
    12    7   12 ar
    13    8    9 1
    14    9   18 2
    15   10   11 1
    16   10   14 ar
    17   12   13 1
    18   12   16 ar
    19   14   15 1
    20   14   16 ar
    21   16   17 1
    22   18   19 1
    23   20   21 1
