@<TRIPOS>MOLECULE
DB00130
   20    19     0     0     0
SMALL
USER_CHARGES

@<TRIPOS>ATOM
      1 N1         -3.6801    0.1483    0.0323 N.am      1 <0>        -0.8000
      2 H1         -4.5546   -0.3011   -0.2080 H         1 <0>         0.3700
      3 H2         -3.7106    1.0738    0.4401 H         1 <0>         0.3700
      4 C1         -2.5131   -0.5249   -0.2085 C.2       1 <0>         0.5690
      5 C2          2.5214   -0.6669    0.1865 C.2       1 <0>         0.6590
      6 O1          3.6369    0.0681   -0.0352 O.3       1 <0>        -0.6500
      7 H3          4.3626   -0.5875   -0.1098 H         1 <0>         0.5000
      8 C3          1.2726    0.1973    0.3869 C.3       1 <0>         0.3310
      9 H4          1.2041    0.4072    1.4609 H         1 <0>         0.0000
     10 C4          0.0123   -0.5389   -0.0830 C.3       1 <0>         0.0000
     11 H5          0.0846   -0.7657   -1.1558 H         1 <0>         0.0000
     12 H6         -0.0471   -1.5126    0.4217 H         1 <0>         0.0000
     13 C5         -1.2722    0.2452    0.1945 C.3       1 <0>         0.0610
     14 H7         -1.2741    1.1916   -0.3582 H         1 <0>         0.0000
     15 H8         -1.3467    0.4760    1.2633 H         1 <0>         0.0000
     16 O2          2.5856   -1.8834    0.2573 O.2       1 <0>        -0.5700
     17 N2          1.4247    1.4832   -0.3259 N.3       1 <0>        -0.9900
     18 H9          1.4303    1.3093   -1.3318 H         1 <0>         0.3600
     19 H10         2.3696    1.8261   -0.1215 H         1 <0>         0.3600
     20 O3         -2.5064   -1.6450   -0.7058 O.2       1 <0>        -0.5700
@<TRIPOS>BOND
     1    1    2 1
     2    1    3 1
     3    1    4 am
     4    4   13 1
     5    4   20 2
     6    5    6 1
     7    5    8 1
     8    5   16 2
     9    6    7 1
    10    8    9 1
    11    8   10 1
    12    8   17 1
    13   10   11 1
    14   10   12 1
    15   10   13 1
    16   13   14 1
    17   13   15 1
    18   17   18 1
    19   17   19 1
