@<TRIPOS>MOLECULE
DB00441
   29    30     0     0     0
SMALL
USER_CHARGES

@<TRIPOS>ATOM
      1 F1          1.6346    2.7361   -0.2391 F         1 <0>        -0.3400
      2 F2          0.0649    2.1766    1.1737 F         1 <0>        -0.3400
      3 O1          1.1904   -0.2348   -1.1374 O.3       1 <0>        -0.5600
      4 O2          2.9374    1.2781    1.6546 O.3       1 <0>        -0.6800
      5 H1          3.4037    0.5861    2.1561 H         1 <0>         0.4000
      6 O3          3.4294   -2.0180   -1.2347 O.3       1 <0>        -0.6800
      7 H2          2.7009   -1.9261   -1.8769 H         1 <0>         0.4000
      8 O4         -1.8707    2.4653   -1.1319 O.2       1 <0>        -0.5700
      9 N1         -1.0493    0.4086   -0.5462 N.am      1 <0>        -0.4690
     10 N2         -3.3712    0.9439   -0.3712 N.2       1 <0>        -0.6610
     11 N3         -4.8712   -0.5863    0.4058 N.pl3     1 <0>        -0.8500
     12 H3         -5.5889    0.1192    0.2951 H         1 <0>         0.4000
     13 H4         -5.1350   -1.4962    0.7559 H         1 <0>         0.4000
     14 C1          1.8844    0.6809    0.9156 C.3       1 <0>         0.2800
     15 H5          1.3140    0.0274    1.5864 H         1 <0>         0.0000
     16 C2          0.9462    1.6884    0.2789 C.3       1 <0>         0.6800
     17 C3          2.3680   -0.0562   -0.3192 C.3       1 <0>         0.2800
     18 H6          3.0839    0.5437   -0.8953 H         1 <0>         0.0000
     19 C4          0.3013    0.8809   -0.8567 C.3       1 <0>         0.5800
     20 H7          0.2655    1.4860   -1.7704 H         1 <0>         0.0000
     21 C5          2.9802   -1.4202   -0.0221 C.3       1 <0>         0.2800
     22 H8          2.2438   -2.0970    0.4241 H         1 <0>         0.0000
     23 H9          3.8367   -1.3350    0.6521 H         1 <0>         0.0000
     24 C6         -1.2914   -0.8659   -0.0890 C.2       1 <0>        -0.0410
     25 H10        -0.4509   -1.5448    0.0028 H         1 <0>         0.1500
     26 C7         -2.0943    1.3322   -0.7056 C.2       1 <0>         0.8410
     27 C8         -2.5209   -1.2621    0.2302 C.2       1 <0>        -0.1360
     28 H11        -2.7513   -2.2534    0.5917 H         1 <0>         0.1500
     29 C9         -3.5902   -0.2570    0.0727 C.2       1 <0>         0.4860
@<TRIPOS>BOND
     1    1   16 1
     2    2   16 1
     3    3   17 1
     4    3   19 1
     5    4    5 1
     6    4   14 1
     7    6    7 1
     8    6   21 1
     9    8   26 2
    10    9   19 1
    11    9   24 1
    12    9   26 am
    13   10   26 1
    14   10   29 2
    15   11   12 1
    16   11   13 1
    17   11   29 1
    18   14   15 1
    19   14   16 1
    20   14   17 1
    21   16   19 1
    22   17   18 1
    23   17   21 1
    24   19   20 1
    25   21   22 1
    26   21   23 1
    27   24   25 1
    28   24   27 2
    29   27   28 1
    30   27   29 1
