@<TRIPOS>MOLECULE
DB00593
   21    21     0     0     0
SMALL
USER_CHARGES

@<TRIPOS>ATOM
      1 O1         -1.1299   -1.9444   -1.4418 O.2       1 <0>        -0.5700
      2 O2         -3.0221    1.7553    0.4112 O.2       1 <0>        -0.5700
      3 N1         -2.3450   -0.1839   -0.6177 N.am      1 <0>        -0.4900
      4 H1         -3.2416   -0.4619   -0.9883 H         1 <0>         0.3700
      5 C1         -0.0876   -0.2671    0.0030 C.3       1 <0>         0.0610
      6 C2         -0.6893    1.0981    0.3871 C.3       1 <0>         0.0610
      7 H2         -0.3047    1.9138   -0.2352 H         1 <0>         0.0000
      8 H3         -0.5376    1.3483    1.4414 H         1 <0>         0.0000
      9 C3          1.1694   -0.1416   -0.8781 C.3       1 <0>         0.0000
     10 H4          1.4962   -1.1393   -1.2014 H         1 <0>         0.0000
     11 H5          0.9172    0.4001   -1.7990 H         1 <0>         0.0000
     12 C4         -1.2098   -0.9152   -0.7908 C.2       1 <0>         0.5690
     13 C5          0.1612   -1.1253    1.2502 C.3       1 <0>         0.0000
     14 H6         -0.7706   -1.3170    1.7964 H         1 <0>         0.0000
     15 H7          0.8553   -0.6401    1.9435 H         1 <0>         0.0000
     16 H8          0.5789   -2.1018    0.9793 H         1 <0>         0.0000
     17 C6         -2.1551    0.9567    0.0954 C.2       1 <0>         0.5690
     18 C7          2.3464    0.5580   -0.2107 C.3       1 <0>         0.0000
     19 H9          2.7123   -0.0074    0.6512 H         1 <0>         0.0000
     20 H10         2.0807    1.5649    0.1242 H         1 <0>         0.0000
     21 H11         3.1756    0.6499   -0.9199 H         1 <0>         0.0000
@<TRIPOS>BOND
     1    1   12 2
     2    2   17 2
     3    3    4 1
     4    3   12 am
     5    3   17 am
     6    5    6 1
     7    5    9 1
     8    5   12 1
     9    5   13 1
    10    6    7 1
    11    6    8 1
    12    6   17 1
    13    9   10 1
    14    9   11 1
    15    9   18 1
    16   13   14 1
    17   13   15 1
    18   13   16 1
    19   18   19 1
    20   18   20 1
    21   18   21 1
