@<TRIPOS>MOLECULE
DB00900
   29    31     0     0     0
SMALL
USER_CHARGES

@<TRIPOS>ATOM
      1 O1          0.8132   -0.2565   -0.9778 O.3       1 <0>        -0.5600
      2 O2          3.7736   -1.6658    0.6754 O.3       1 <0>        -0.6800
      3 H1          3.8408   -2.3950    1.3173 H         1 <0>         0.4000
      4 O3         -5.3116   -0.0139    0.8347 O.2       1 <0>        -0.5700
      5 N1         -1.0183    1.0698   -0.2356 N.pl3     1 <0>         0.0480
      6 N2         -1.6919   -1.2595   -0.4868 N.pl3     1 <0>        -0.5340
      7 H2         -0.7934   -1.5973   -0.8335 H         1 <0>         0.4000
      8 N3         -2.9815    1.8606    0.5099 N.2       1 <0>        -0.5650
      9 N4         -3.9610   -1.7404    0.1065 N.2       1 <0>        -0.6610
     10 C1          0.3648    1.0844   -0.6688 C.3       1 <0>         0.5360
     11 H3          0.4067    1.6682   -1.5963 H         1 <0>         0.0000
     12 C2          1.3421    1.6094    0.3675 C.3       1 <0>         0.0000
     13 H4          1.3671    2.7018    0.4171 H         1 <0>         0.0000
     14 H5          1.0993    1.2289    1.3672 H         1 <0>         0.0000
     15 C3          2.6409    1.0074   -0.1086 C.3       1 <0>         0.0000
     16 H6          3.4115    0.9712    0.6661 H         1 <0>         0.0000
     17 H7          3.0344    1.6088   -0.9386 H         1 <0>         0.0000
     18 C4          2.2108   -0.3580   -0.6334 C.3       1 <0>         0.2800
     19 H8          2.7773   -0.6007   -1.5404 H         1 <0>         0.0000
     20 C5          2.3951   -1.4839    0.3864 C.3       1 <0>         0.2800
     21 H9          1.9899   -2.4208   -0.0111 H         1 <0>         0.0000
     22 H10         1.8583   -1.2646    1.3158 H         1 <0>         0.0000
     23 C6         -1.8810    0.0263   -0.1705 C.2       1 <0>        -0.0680
     24 C7         -1.7373    2.1674    0.1852 C.2       1 <0>         0.0370
     25 H11        -1.3080    3.1603    0.2344 H         1 <0>         0.1500
     26 C8         -3.0781    0.5084    0.2823 C.2       1 <0>         0.1410
     27 C9         -4.2164   -0.4006    0.4405 C.2       1 <0>         0.8670
     28 C10        -2.7784   -2.0835   -0.3180 C.2       1 <0>         0.4400
     29 H12        -2.5689   -3.1323   -0.5868 H         1 <0>         0.0600
@<TRIPOS>BOND
     1    1   10 1
     2    1   18 1
     3    2    3 1
     4    2   20 1
     5    4   27 2
     6    5   10 1
     7    5   23 1
     8    5   24 1
     9    6    7 1
    10    6   23 1
    11    6   28 1
    12    8   24 2
    13    8   26 1
    14    9   27 1
    15    9   28 2
    16   10   11 1
    17   10   12 1
    18   12   13 1
    19   12   14 1
    20   12   15 1
    21   15   16 1
    22   15   17 1
    23   15   18 1
    24   18   19 1
    25   18   20 1
    26   20   21 1
    27   20   22 1
    28   23   26 2
    29   24   25 1
    30   26   27 1
    31   28   29 1
