@<TRIPOS>MOLECULE
DB00993
   26    28     0     0     0
SMALL
USER_CHARGES

@<TRIPOS>ATOM
      1 S1         -0.3816   -0.0603   -1.7963 S.3       1 <0>        -0.1580
      2 O1         -1.1456    4.0460    0.3235 O.2       1 <0>        -0.5200
      3 O2          0.3900    2.8406   -0.6896 O.2       1 <0>        -0.5200
      4 N1         -2.4340   -0.1723    0.0009 N.pl3     1 <0>         0.0480
      5 N2          2.4559    1.0143   -0.3693 N.pl3     1 <0>         0.0330
      6 H1          2.0166    1.8104   -0.8262 H         1 <0>         0.2700
      7 N3         -2.5285    1.8159    0.9965 N.2       1 <0>        -0.5650
      8 N4          0.6394   -2.1835   -0.4728 N.ar      1 <0>        -0.6200
      9 N5          3.9191   -0.1633    0.8166 N.2       1 <0>        -0.5650
     10 N6         -0.7007    2.9764   -0.1125 N.pl3     1 <0>         0.9610
     11 N7          2.7164   -2.2615    0.7693 N.ar      1 <0>        -0.5660
     12 C1         -1.4108    0.5666   -0.5471 C.2       1 <0>        -0.0960
     13 C2          1.9445   -0.2523   -0.3000 C.ar      1 <0>        -0.1520
     14 C3          0.8081   -0.8773   -0.7775 C.ar      1 <0>         0.4120
     15 C4         -1.5023    1.7963    0.0757 C.2       1 <0>         0.3060
     16 C5         -3.0644    0.6186    0.9279 C.2       1 <0>         0.0370
     17 H2         -3.9058    0.2730    1.5165 H         1 <0>         0.1500
     18 C6          2.8649   -0.9593    0.4531 C.ar      1 <0>         0.4830
     19 C7         -2.8235   -1.5293   -0.3071 C.3       1 <0>         0.2560
     20 H3         -3.7884   -1.7441    0.1596 H         1 <0>         0.0000
     21 H4         -2.0663   -2.2079    0.0927 H         1 <0>         0.0000
     22 H5         -2.9185   -1.6374   -1.3891 H         1 <0>         0.0000
     23 C8          3.6476    1.0155    0.3014 C.2       1 <0>         0.0370
     24 H6          4.2622    1.9019    0.3860 H         1 <0>         0.1500
     25 C9          1.5889   -2.7893    0.2725 C.ar      1 <0>         0.4700
     26 H7          1.4168   -3.8376    0.4952 H         1 <0>         0.1500
@<TRIPOS>BOND
     1    1   12 1
     2    1   14 1
     3    2   10 2
     4    3   10 2
     5    4   12 1
     6    4   16 1
     7    4   19 1
     8    5    6 1
     9    5   13 1
    10    5   23 1
    11    7   15 1
    12    7   16 2
    13    8   14 ar
    14    8   25 ar
    15    9   18 1
    16    9   23 2
    17   10   15 1
    18   11   18 ar
    19   11   25 ar
    20   12   15 2
    21   13   14 ar
    22   13   18 ar
    23   16   17 1
    24   19   20 1
    25   19   21 1
    26   19   22 1
    27   23   24 1
    28   25   26 1
