@<TRIPOS>MOLECULE
DB00233
   17    17     0     0     0
SMALL
USER_CHARGES

@<TRIPOS>ATOM
      1 O1          1.3933    2.1436    0.1611 O.3       1 <0>        -0.5320
      2 O2          3.3270   -1.2111    0.7968 O.co2     1 <0>        -0.9000
      3 O3          3.4687    0.3102   -0.8754 O.co2     1 <0>        -0.9000
      4 N1         -2.8837   -0.0422   -0.0182 N.pl3     1 <0>        -0.9000
      5 C1          1.3284   -0.2436    0.0020 C.ar      1 <0>        -0.1790
      6 C2          0.6700    0.9882    0.0562 C.ar      1 <0>         0.0820
      7 C3         -1.5001   -0.1092   -0.0089 C.ar      1 <0>         0.1000
      8 C4         -0.7296    1.0563    0.0458 C.ar      1 <0>        -0.1500
      9 C5          0.5477   -1.4108   -0.0366 C.ar      1 <0>        -0.1500
     10 C6         -0.8489   -1.3429   -0.0450 C.ar      1 <0>        -0.1500
     11 C7          2.8252   -0.3726   -0.0181 C.2       1 <0>         0.9790
     12 H1          0.8047    2.9029    0.0361 H         1 <0>         0.4500
     13 H2         -3.4358   -0.8877   -0.0464 H         1 <0>         0.4000
     14 H3         -3.3578    0.8487   -0.0004 H         1 <0>         0.4000
     15 H4         -1.2281    2.0181    0.0941 H         1 <0>         0.1500
     16 H5          1.0394   -2.3824   -0.0636 H         1 <0>         0.1500
     17 H6         -1.4203   -2.2655   -0.0795 H         1 <0>         0.1500
@<TRIPOS>BOND
     1    1    6 1
     2    1   12 1
     3    2   11 2
     4    3   11 1
     5    4    7 1
     6    4   13 1
     7    4   14 1
     8    5    6 ar
     9    5    9 ar
    10    5   11 1
    11    6    8 ar
    12    7    8 ar
    13    7   10 ar
    14    8   15 1
    15    9   10 ar
    16    9   16 1
    17   10   17 1
