@<TRIPOS>MOLECULE
DB00359
   27    28     0     0     0
SMALL
USER_CHARGES

@<TRIPOS>ATOM
      1 S1         -0.3809   -2.0584   -1.0088 S.o2      1 <0>         1.4470
      2 O1         -0.8442   -1.6443   -2.3163 O.2       1 <0>        -0.6500
      3 O2          0.0497   -3.4259   -0.7889 O.2       1 <0>        -0.6500
      4 N1         -1.5331   -1.7294    0.1453 N.pl3     1 <0>        -0.7570
      5 H1         -1.9822   -2.5064    0.6215 H         1 <0>         0.4200
      6 N2          4.1784    1.3842    0.6620 N.pl3     1 <0>        -0.9000
      7 H2          4.6912    1.1824    1.5087 H         1 <0>         0.4000
      8 H3          4.4521    2.1859    0.1104 H         1 <0>         0.4000
      9 N3         -3.4127   -0.6182    0.8121 N.ar      1 <0>        -0.6200
     10 N4         -1.7535    0.5481   -0.4540 N.ar      1 <0>        -0.6200
     11 C1          0.9768   -1.0287   -0.5224 C.ar      1 <0>        -0.0090
     12 C2          1.3451    0.0621   -1.3091 C.ar      1 <0>        -0.1500
     13 H4          0.8017    0.3074   -2.2184 H         1 <0>         0.1500
     14 C3          1.6822   -1.3391    0.6407 C.ar      1 <0>        -0.1500
     15 H5          1.4091   -2.1982    1.2482 H         1 <0>         0.1500
     16 C4          3.1257    0.5805    0.2645 C.ar      1 <0>         0.1000
     17 C5          2.4169    0.8637   -0.9082 C.ar      1 <0>        -0.1500
     18 H6          2.6923    1.7195   -1.5187 H         1 <0>         0.1500
     19 C6          2.7521   -0.5299    1.0299 C.ar      1 <0>        -0.1500
     20 H7          3.2947   -0.7731    1.9395 H         1 <0>         0.1500
     21 C7         -2.2788   -0.5485    0.1036 C.ar      1 <0>         0.8190
     22 C8         -4.1094    0.5321    0.8987 C.ar      1 <0>         0.1600
     23 H8         -5.0377    0.4720    1.4586 H         1 <0>         0.1500
     24 C9         -2.4937    1.6668   -0.3378 C.ar      1 <0>         0.1600
     25 H9         -2.0762    2.5508   -0.8098 H         1 <0>         0.1500
     26 C10        -3.6950    1.7164    0.3331 C.ar      1 <0>        -0.1500
     27 H10        -4.2707    2.6283    0.4158 H         1 <0>         0.1500
@<TRIPOS>BOND
     1    1    2 2
     2    1    3 2
     3    1    4 1
     4    1   11 1
     5    4    5 1
     6    4   21 1
     7    6    7 1
     8    6    8 1
     9    6   16 1
    10    9   21 ar
    11    9   22 ar
    12   10   21 ar
    13   10   24 ar
    14   11   12 ar
    15   11   14 ar
    16   12   13 1
    17   12   17 ar
    18   14   15 1
    19   14   19 ar
    20   16   17 ar
    21   16   19 ar
    22   17   18 1
    23   19   20 1
    24   22   23 1
    25   22   26 ar
    26   24   25 1
    27   24   26 ar
    28   26   27 1
