@<TRIPOS>MOLECULE
DB00951
   17    17     0     0     0
SMALL
USER_CHARGES

@<TRIPOS>ATOM
      1 O1         -1.4937   -1.6235   -0.5582 O.2       1 <0>        -0.5700
      2 N1         -2.0236    0.4403    0.3237 N.am      1 <0>        -0.4210
      3 H1         -1.7181    1.3157    0.7408 H         1 <0>         0.3700
      4 N2          3.0528    0.3214    0.0422 N.ar      1 <0>        -0.6200
      5 N3         -3.4039    0.1976    0.2348 N.3       1 <0>        -0.7290
      6 H2         -3.5366   -0.8089    0.3888 H         1 <0>         0.3600
      7 H3         -3.6755    0.3317   -0.7423 H         1 <0>         0.3600
      8 C1          0.3091   -0.1930   -0.0675 C.ar      1 <0>         0.0860
      9 C2          0.7793    1.1189   -0.1332 C.ar      1 <0>        -0.1500
     10 H4          0.1248    1.9735   -0.2563 H         1 <0>         0.1500
     11 C3          1.2214   -1.2462    0.0323 C.ar      1 <0>        -0.1500
     12 H5          0.8930   -2.2797    0.0691 H         1 <0>         0.1500
     13 C4         -1.1388   -0.5254   -0.1349 C.2       1 <0>         0.5440
     14 C5          2.1495    1.3177   -0.0727 C.ar      1 <0>         0.1600
     15 H6          2.5722    2.3174   -0.1231 H         1 <0>         0.1500
     16 C6          2.5691   -0.9383    0.0871 C.ar      1 <0>         0.1600
     17 H7          3.3190   -1.7191    0.1693 H         1 <0>         0.1500
@<TRIPOS>BOND
     1    1   13 2
     2    2    3 1
     3    2    5 1
     4    2   13 am
     5    4   14 ar
     6    4   16 ar
     7    5    6 1
     8    5    7 1
     9    8    9 ar
    10    8   11 ar
    11    8   13 1
    12    9   10 1
    13    9   14 ar
    14   11   12 1
    15   11   16 ar
    16   14   15 1
    17   16   17 1
