@<TRIPOS>MOLECULE
DB00756
   27    28     0     0     0
SMALL
USER_CHARGES

@<TRIPOS>ATOM
      1 Cl1         2.5136   -2.2971   -1.8449 Cl        1 <0>        -0.1770
      2 Cl2        -0.2096   -2.6168    0.8518 Cl        1 <0>        -0.1770
      3 Cl3         2.7305    2.6751    1.9515 Cl        1 <0>        -0.1770
      4 Cl4        -4.6655    1.6020   -0.3804 Cl        1 <0>        -0.1770
      5 Cl5         5.1482   -1.5716   -0.2096 Cl        1 <0>        -0.1770
      6 Cl6        -2.9001   -2.4970    2.5651 Cl        1 <0>        -0.1770
      7 O1          0.3836    1.8311    0.3543 O.3       1 <0>        -0.5320
      8 H1          0.6310    2.5617    0.9520 H         1 <0>         0.4500
      9 O2         -2.0899    1.3300   -1.8319 O.3       1 <0>        -0.5320
     10 H2         -2.8739    1.9086   -1.8511 H         1 <0>         0.4500
     11 C1          0.0682   -0.4291   -1.3547 C.3       1 <0>         0.2870
     12 H3          0.1008   -1.3848   -1.8858 H         1 <0>         0.0000
     13 H4          0.0019    0.3188   -2.1551 H         1 <0>         0.0000
     14 C2          1.3650   -0.1316   -0.6082 C.ar      1 <0>        -0.1440
     15 C3         -1.2057   -0.4684   -0.5214 C.ar      1 <0>        -0.1440
     16 C4          1.4656    0.9974    0.2288 C.ar      1 <0>         0.0820
     17 C5         -2.2431    0.4450   -0.7936 C.ar      1 <0>         0.0820
     18 C6          2.5235   -0.9309   -0.7680 C.ar      1 <0>         0.1770
     19 C7         -1.4090   -1.4061    0.5163 C.ar      1 <0>         0.1770
     20 C8          2.6453    1.2941    0.9219 C.ar      1 <0>         0.1770
     21 C9         -3.4200    0.4600   -0.0356 C.ar      1 <0>         0.1770
     22 C10         3.7061   -0.6229   -0.0656 C.ar      1 <0>         0.1770
     23 C11        -2.5982   -1.3842    1.2724 C.ar      1 <0>         0.1770
     24 C12         3.7638    0.4830    0.7830 C.ar      1 <0>        -0.1500
     25 H5          4.6783    0.7160    1.3221 H         1 <0>         0.1500
     26 C13        -3.5972   -0.4476    0.9998 C.ar      1 <0>        -0.1500
     27 H6         -4.5131   -0.4348    1.5871 H         1 <0>         0.1500
@<TRIPOS>BOND
     1    1   18 1
     2    2   19 1
     3    3   20 1
     4    4   21 1
     5    5   22 1
     6    6   23 1
     7    7    8 1
     8    7   16 1
     9    9   10 1
    10    9   17 1
    11   11   12 1
    12   11   13 1
    13   11   14 1
    14   11   15 1
    15   14   16 ar
    16   14   18 ar
    17   15   17 ar
    18   15   19 ar
    19   16   20 ar
    20   17   21 ar
    21   18   22 ar
    22   19   23 ar
    23   20   24 ar
    24   21   26 ar
    25   22   24 ar
    26   23   26 ar
    27   24   25 1
    28   26   27 1
