@<TRIPOS>MOLECULE
DB00145
   10     9     0     0     0
SMALL
USER_CHARGES

@<TRIPOS>ATOM
      1 O1          1.9829   -0.5370    0.0375 O.3       1 <0>        -0.6500
      2 H1          2.7536    0.0683    0.0616 H         1 <0>         0.5000
      3 O2          1.0354    1.4892    0.0067 O.2       1 <0>        -0.5700
      4 N1         -1.5218    0.3349    0.3732 N.3       1 <0>        -0.9900
      5 H2         -2.3970   -0.1228    0.1270 H         1 <0>         0.3600
      6 H3         -1.4914    1.2146   -0.1461 H         1 <0>         0.3600
      7 C1         -0.3945   -0.5056   -0.0417 C.3       1 <0>         0.3310
      8 H4         -0.5392   -0.8494   -1.0697 H         1 <0>         0.0000
      9 H5         -0.3325   -1.3678    0.6300 H         1 <0>         0.0000
     10 C2          0.9043    0.2757    0.0216 C.2       1 <0>         0.6590
@<TRIPOS>BOND
     1    1    2 1
     2    1   10 1
     3    3   10 2
     4    4    5 1
     5    4    6 1
     6    4    7 1
     7    7    8 1
     8    7    9 1
     9    7   10 1
