@<TRIPOS>MOLECULE
DB00583
   26    25     0     0     0
SMALL
USER_CHARGES

@<TRIPOS>ATOM
      1 O1         -1.3149    1.3930    0.5717 O.3       1 <0>        -0.6800
      2 H1         -2.2548    1.6727    0.3284 H         1 <0>         0.4000
      3 O2         -4.5744   -0.7275   -0.7097 O.co2     1 <0>        -0.9000
      4 O3         -3.5799    1.2744   -0.1620 O.co2     1 <0>        -0.9000
      5 N1          1.4052   -0.0312   -0.0224 N.4       1 <0>        -1.0120
      6 C1          0.0632   -0.6036    0.5138 C.3       1 <0>         0.5030
      7 H2          0.0652   -1.6679    0.2532 H         1 <0>         0.0000
      8 H3          0.1070   -0.5021    1.6053 H         1 <0>         0.0000
      9 C2         -1.1930    0.0953   -0.0314 C.3       1 <0>         0.2800
     10 H4         -1.1336    0.2372   -1.1151 H         1 <0>         0.0000
     11 C3          2.5398   -0.7273    0.7269 C.3       1 <0>         0.5030
     12 H5          2.4428   -0.5017    1.7925 H         1 <0>         0.0000
     13 H6          3.4938   -0.3516    0.3446 H         1 <0>         0.0000
     14 H7          2.4591   -1.8052    0.5532 H         1 <0>         0.0000
     15 C4          1.5646   -0.3074   -1.5105 C.3       1 <0>         0.5030
     16 H8          2.5643    0.0159   -1.8161 H         1 <0>         0.0000
     17 H9          0.8120    0.2578   -2.0650 H         1 <0>         0.0000
     18 H10         1.4434   -1.3815   -1.6790 H         1 <0>         0.0000
     19 C5          1.5088    1.4701    0.2325 C.3       1 <0>         0.5030
     20 H11         0.8215    1.9959   -0.4351 H         1 <0>         0.0000
     21 H12         1.2808    1.6630    1.2845 H         1 <0>         0.0000
     22 H13         2.5332    1.7843    0.0056 H         1 <0>         0.0000
     23 C6         -2.4421   -0.7235    0.3080 C.3       1 <0>        -0.1060
     24 H14        -2.5741   -0.8078    1.3937 H         1 <0>         0.0000
     25 H15        -2.3740   -1.7295   -0.1191 H         1 <0>         0.0000
     26 C7         -3.6641    0.0082   -0.2483 C.2       1 <0>         0.9060
@<TRIPOS>BOND
     1    1    2 1
     2    1    9 1
     3    3   26 2
     4    4   26 1
     5    5    6 1
     6    5   11 1
     7    5   15 1
     8    5   19 1
     9    6    7 1
    10    6    8 1
    11    6    9 1
    12    9   10 1
    13    9   23 1
    14   11   12 1
    15   11   13 1
    16   11   14 1
    17   15   16 1
    18   15   17 1
    19   15   18 1
    20   19   20 1
    21   19   21 1
    22   19   22 1
    23   23   24 1
    24   23   25 1
    25   23   26 1
