@<TRIPOS>MOLECULE
DB00992
   21    20     0     0     0
SMALL
USER_CHARGES

@<TRIPOS>ATOM
      1 O1         -3.0596    0.6615   -0.0008 O.3       1 <0>        -0.4300
      2 O2          1.8431    1.6063    0.1979 O.2       1 <0>        -0.5700
      3 O3         -2.1078   -1.4304   -0.0646 O.2       1 <0>        -0.5700
      4 N1          4.1605    0.2694   -0.5135 N.3       1 <0>        -0.9900
      5 H1          5.0498   -0.1629   -0.2697 H         1 <0>         0.3600
      6 H2          4.1730    1.2141   -0.1197 H         1 <0>         0.3600
      7 C1          0.4866   -0.3780    0.0157 C.3       1 <0>         0.0610
      8 H3          0.4912   -0.9766   -0.9029 H         1 <0>         0.0000
      9 H4          0.4410   -1.0616    0.8706 H         1 <0>         0.0000
     10 C2         -0.7171    0.5573    0.0234 C.3       1 <0>         0.0610
     11 H5         -0.6791    1.2221   -0.8471 H         1 <0>         0.0000
     12 H6         -0.7110    1.1684    0.9334 H         1 <0>         0.0000
     13 C3          1.7989    0.3794    0.0926 C.2       1 <0>         0.4480
     14 C4          3.0630   -0.4747    0.1009 C.3       1 <0>         0.3310
     15 H7          2.8925   -1.3936   -0.4676 H         1 <0>         0.0000
     16 H8          3.2953   -0.7283    1.1386 H         1 <0>         0.0000
     17 C5         -2.0133   -0.2127   -0.0204 C.2       1 <0>         0.6590
     18 C6         -4.3465    0.0416   -0.0359 C.3       1 <0>         0.2800
     19 H9         -5.1042    0.8303   -0.0156 H         1 <0>         0.0000
     20 H10        -4.4874   -0.5963    0.8427 H         1 <0>         0.0000
     21 H11        -4.4690   -0.5355   -0.9580 H         1 <0>         0.0000
@<TRIPOS>BOND
     1    1   17 1
     2    1   18 1
     3    2   13 2
     4    3   17 2
     5    4    5 1
     6    4    6 1
     7    4   14 1
     8    7    8 1
     9    7    9 1
    10    7   10 1
    11    7   13 1
    12   10   11 1
    13   10   12 1
    14   10   17 1
    15   13   14 1
    16   14   15 1
    17   14   16 1
    18   18   19 1
    19   18   20 1
    20   18   21 1
