@<TRIPOS>MOLECULE
DB00551
   10     9     0     0     0
SMALL
USER_CHARGES

@<TRIPOS>ATOM
      1 O1         -2.3036   -0.2651   -0.0007 O.3       1 <0>        -0.4360
      2 H1         -2.2563    0.7159   -0.0002 H         1 <0>         0.4000
      3 O2         -0.4125    1.5939    0.0005 O.2       1 <0>        -0.5700
      4 N1         -0.9388   -0.6203   -0.0009 N.am      1 <0>        -0.3940
      5 H2         -0.7137   -1.6084    0.0007 H         1 <0>         0.3700
      6 C1         -0.0475    0.4196   -0.0024 C.2       1 <0>         0.5690
      7 C2          1.3974    0.0114   -0.0000 C.3       1 <0>         0.0610
      8 H3          1.5111   -1.0727   -0.0832 H         1 <0>         0.0000
      9 H4          1.8602    0.3430    0.9332 H         1 <0>         0.0000
     10 H5          1.9036    0.4826   -0.8470 H         1 <0>         0.0000
@<TRIPOS>BOND
     1    1    2 1
     2    1    4 1
     3    3    6 2
     4    4    5 1
     5    4    6 am
     6    6    7 1
     7    7    8 1
     8    7    9 1
     9    7   10 1
