@<TRIPOS>MOLECULE
DB00498
   27    29     0     0     0
SMALL
USER_CHARGES

@<TRIPOS>ATOM
      1 O1          0.2081    2.3776   -0.8368 O.2       1 <0>        -0.5700
      2 O2          0.3071   -1.2557    2.2303 O.2       1 <0>        -0.5700
      3 C1         -0.3528    0.7046    0.8863 C.3       1 <0>         0.2650
      4 H1         -0.5068    1.3978    1.7217 H         1 <0>         0.0000
      5 C2          0.5077    1.4161   -0.1493 C.2       1 <0>         0.4230
      6 C3          0.5585   -0.4056    1.3932 C.2       1 <0>         0.4230
      7 C4          1.8105    0.7573   -0.1973 C.ar      1 <0>         0.0860
      8 C5          1.8412   -0.3013    0.7018 C.ar      1 <0>         0.0860
      9 C6         -1.6615    0.2094    0.3196 C.ar      1 <0>        -0.1440
     10 C7          2.8979    1.0689   -0.9922 C.ar      1 <0>        -0.1500
     11 H2          2.8666    1.8961   -1.6940 H         1 <0>         0.1500
     12 C8          2.9616   -1.0984    0.8467 C.ar      1 <0>        -0.1500
     13 H3          2.9789   -1.9261    1.5494 H         1 <0>         0.1500
     14 C9         -2.8648    0.8036    0.7310 C.ar      1 <0>        -0.1500
     15 H4         -2.8628    1.6088    1.4629 H         1 <0>         0.1500
     16 C10        -1.7104   -0.8167   -0.6385 C.ar      1 <0>        -0.1500
     17 H5         -0.8009   -1.2987   -0.9904 H         1 <0>         0.1500
     18 C11         4.0402    0.2737   -0.8593 C.ar      1 <0>        -0.1500
     19 H6          4.9171    0.4853   -1.4673 H         1 <0>         0.1500
     20 C12         4.0712   -0.7998    0.0527 C.ar      1 <0>        -0.1500
     21 H7          4.9722   -1.4042    0.1362 H         1 <0>         0.1500
     22 C13        -4.0856    0.3753    0.2063 C.ar      1 <0>        -0.1500
     23 H8         -5.0113    0.8434    0.5335 H         1 <0>         0.1500
     24 C14        -2.9326   -1.2434   -1.1607 C.ar      1 <0>        -0.1500
     25 H9         -2.9590   -2.0397   -1.8998 H         1 <0>         0.1500
     26 C15        -4.1197   -0.6479   -0.7386 C.ar      1 <0>        -0.1500
     27 H10        -5.0706   -0.9802   -1.1470 H         1 <0>         0.1500
@<TRIPOS>BOND
     1    1    5 2
     2    2    6 2
     3    3    4 1
     4    3    5 1
     5    3    6 1
     6    3    9 1
     7    5    7 1
     8    6    8 1
     9    7    8 ar
    10    7   10 ar
    11    8   12 ar
    12    9   14 ar
    13    9   16 ar
    14   10   11 1
    15   10   18 ar
    16   12   13 1
    17   12   20 ar
    18   14   15 1
    19   14   22 ar
    20   16   17 1
    21   16   24 ar
    22   18   19 1
    23   18   20 ar
    24   20   21 1
    25   22   23 1
    26   22   26 ar
    27   24   25 1
    28   24   26 ar
    29   26   27 1
