@<TRIPOS>MOLECULE
DB00677
   25    24     0     0     0
SMALL
USER_CHARGES

@<TRIPOS>ATOM
      1 P1         -0.1569    0.5393    0.9598 P.3       1 <0>         1.5710
      2 F1         -0.0230    1.9343    0.2535 F         1 <0>        -0.3290
      3 O1         -0.8158   -0.4150   -0.1585 O.3       1 <0>        -0.5510
      4 O2          1.3661    0.0173    1.0639 O.3       1 <0>        -0.5510
      5 O3         -0.8830    0.6419    2.2646 O.2       1 <0>        -0.7000
      6 C1         -2.1917   -0.3340   -0.5071 C.3       1 <0>         0.2800
      7 H1         -2.2889   -0.8913   -1.4471 H         1 <0>         0.0000
      8 C2          2.1705    0.0079   -0.1093 C.3       1 <0>         0.2800
      9 H2          1.6157    0.4257   -0.9583 H         1 <0>         0.0000
     10 C3         -2.6498    1.0935   -0.7691 C.3       1 <0>         0.0000
     11 H3         -2.6248    1.6986    0.1432 H         1 <0>         0.0000
     12 H4         -3.6728    1.1121   -1.1578 H         1 <0>         0.0000
     13 H5         -1.9913    1.5805   -1.4966 H         1 <0>         0.0000
     14 C4         -3.0508   -1.0356    0.5357 C.3       1 <0>         0.0000
     15 H6         -3.0484   -0.4997    1.4882 H         1 <0>         0.0000
     16 H7         -2.6683   -2.0423    0.7338 H         1 <0>         0.0000
     17 H8         -4.0885   -1.1160    0.1971 H         1 <0>         0.0000
     18 C5          2.5519   -1.4331   -0.4160 C.3       1 <0>         0.0000
     19 H9          3.0880   -1.8865    0.4255 H         1 <0>         0.0000
     20 H10         3.1823   -1.4955   -1.3083 H         1 <0>         0.0000
     21 H11         1.6542   -2.0387   -0.5807 H         1 <0>         0.0000
     22 C6          3.3992    0.8646    0.1537 C.3       1 <0>         0.0000
     23 H12         3.9614    0.4940    1.0172 H         1 <0>         0.0000
     24 H13         3.1019    1.8930    0.3889 H         1 <0>         0.0000
     25 H14         4.0630    0.8851   -0.7165 H         1 <0>         0.0000
@<TRIPOS>BOND
     1    1    2 1
     2    1    3 1
     3    1    4 1
     4    1    5 2
     5    3    6 1
     6    4    8 1
     7    6    7 1
     8    6   10 1
     9    6   14 1
    10    8    9 1
    11    8   18 1
    12    8   22 1
    13   10   11 1
    14   10   12 1
    15   10   13 1
    16   14   15 1
    17   14   16 1
    18   14   17 1
    19   18   19 1
    20   18   20 1
    21   18   21 1
    22   22   23 1
    23   22   24 1
    24   22   25 1
