@<TRIPOS>MOLECULE
DB00793
   18    18     0     0     0
SMALL
USER_CHARGES

@<TRIPOS>ATOM
      1 I1         -6.4874    0.8944   -0.0064 I         1 <0>        -0.0080
      2 Cl1         0.3697    3.0207    0.0045 Cl        1 <0>        -0.1770
      3 Cl2         2.8983   -2.6894   -0.0022 Cl        1 <0>        -0.1770
      4 Cl3         4.7585   -0.0316   -0.0077 Cl        1 <0>        -0.1770
      5 O1         -1.1248    0.5045    0.0051 O.3       1 <0>        -0.3630
      6 C1          0.2280    0.2870    0.0042 C.ar      1 <0>         0.0820
      7 C2          1.0476    1.4285    0.0026 C.ar      1 <0>         0.1770
      8 C3          0.8328   -0.9757    0.0024 C.ar      1 <0>        -0.1500
      9 H1          0.2422   -1.8864    0.0043 H         1 <0>         0.1500
     10 C4          2.2290   -1.0950   -0.0003 C.ar      1 <0>         0.1770
     11 C5          2.4404    1.3120   -0.0004 C.ar      1 <0>        -0.1500
     12 H2          3.0592    2.2065   -0.0019 H         1 <0>         0.1500
     13 C6          3.0330    0.0498   -0.0023 C.ar      1 <0>         0.1770
     14 C7         -1.9923   -0.6271    0.0015 C.3       1 <0>         0.4800
     15 H3         -1.8141   -1.2326   -0.8949 H         1 <0>         0.0000
     16 H4         -1.8199   -1.2337    0.8980 H         1 <0>         0.0000
     17 C8         -3.3815   -0.1581   -0.0023 C.1       1 <0>        -0.2000
     18 C9         -4.5188    0.2262   -0.0044 C.1       1 <0>         0.0080
@<TRIPOS>BOND
     1    1   18 1
     2    2    7 1
     3    3   10 1
     4    4   13 1
     5    5    6 1
     6    5   14 1
     7    6    7 ar
     8    6    8 ar
     9    7   11 ar
    10    8    9 1
    11    8   10 ar
    12   10   13 ar
    13   11   12 1
    14   11   13 ar
    15   14   15 1
    16   14   16 1
    17   14   17 1
    18   17   18 3
