@<TRIPOS>MOLECULE
DB00258
    7     6     0     0     0
SMALL
USER_CHARGES

@<TRIPOS>ATOM
      1 O1         -1.4141   -1.1482   -0.0001 O.co2     1 <0>        -0.9000
      2 O2         -1.4113    1.1396   -0.0002 O.co2     1 <0>        -0.9000
      3 C1          0.6403   -0.0006   -0.0000 C.3       1 <0>        -0.1060
      4 C2         -0.8777   -0.0050   -0.0003 C.2       1 <0>         0.9060
      5 H1          1.0431   -1.0185   -0.0118 H         1 <0>         0.0000
      6 H2          1.0094    0.5061    0.8967 H         1 <0>         0.0000
      7 H3          1.0104    0.5266   -0.8842 H         1 <0>         0.0000
@<TRIPOS>BOND
     1    1    4 2
     2    2    4 1
     3    3    4 1
     4    3    5 1
     5    3    6 1
     6    3    7 1
