@<TRIPOS>MOLECULE
DB00659
   22    21     0     0     0
SMALL
USER_CHARGES

@<TRIPOS>ATOM
      1 S1          3.4235   -0.6436    0.0272 S.o2      1 <0>         1.3780
      2 O1          4.5771    0.4864    0.1298 O.3       1 <0>        -0.6840
      3 H1          5.0672    0.5415   -0.7193 H         1 <0>         0.5000
      4 O2          3.4829   -1.4714    1.2104 O.2       1 <0>        -0.6500
      5 O3          3.5013   -1.1830   -1.3120 O.2       1 <0>        -0.6500
      6 O4         -3.0608    1.7633   -0.1026 O.2       1 <0>        -0.5700
      7 N1         -1.7389   -0.1186    0.0666 N.am      1 <0>        -0.7300
      8 H2         -1.7296   -1.1317    0.1159 H         1 <0>         0.3700
      9 C1          0.7096   -0.3245    0.0564 C.3       1 <0>         0.0000
     10 H3          0.6682   -0.8874   -0.8846 H         1 <0>         0.0000
     11 H4          0.6632   -1.0700    0.8602 H         1 <0>         0.0000
     12 C2          2.0169    0.4513    0.1413 C.3       1 <0>         0.1050
     13 H5          2.0940    0.9818    1.0954 H         1 <0>         0.0000
     14 H6          2.0972    1.1716   -0.6793 H         1 <0>         0.0000
     15 C3         -0.4901    0.6085    0.1484 C.3       1 <0>         0.3000
     16 H7         -0.4686    1.3494   -0.6593 H         1 <0>         0.0000
     17 H8         -0.4869    1.1528    1.1001 H         1 <0>         0.0000
     18 C4         -2.9425    0.5422   -0.0622 C.2       1 <0>         0.5690
     19 C5         -4.1255   -0.3853   -0.1219 C.3       1 <0>         0.0610
     20 H9         -3.9087   -1.2435   -0.7651 H         1 <0>         0.0000
     21 H10        -4.9879    0.1466   -0.5315 H         1 <0>         0.0000
     22 H11        -4.3615   -0.7363    0.8859 H         1 <0>         0.0000
@<TRIPOS>BOND
     1    1    2 1
     2    1    4 2
     3    1    5 2
     4    1   12 1
     5    2    3 1
     6    6   18 2
     7    7    8 1
     8    7   15 1
     9    7   18 am
    10    9   10 1
    11    9   11 1
    12    9   12 1
    13    9   15 1
    14   12   13 1
    15   12   14 1
    16   15   16 1
    17   15   17 1
    18   18   19 1
    19   19   20 1
    20   19   21 1
    21   19   22 1
