@<TRIPOS>MOLECULE
DB01086
   23    23     0     0     0
SMALL
USER_CHARGES

@<TRIPOS>ATOM
      1 O1         -1.8862    0.0129    0.0074 O.3       1 <0>        -0.4300
      2 O2         -1.2888    2.2336    0.0467 O.2       1 <0>        -0.5700
      3 N1          4.3944   -0.7279   -0.0150 N.pl3     1 <0>        -0.9000
      4 H1          5.1511   -0.0575   -0.0397 H         1 <0>         0.4000
      5 H2          4.6233   -1.7125   -0.0009 H         1 <0>         0.4000
      6 C1          0.3878    0.5456    0.0167 C.ar      1 <0>         0.0860
      7 C2          0.6973   -0.8198    0.0302 C.ar      1 <0>        -0.1500
      8 H3         -0.0856   -1.5744    0.0490 H         1 <0>         0.1500
      9 C3          1.4293    1.4797   -0.0055 C.ar      1 <0>        -0.1500
     10 H4          1.2148    2.5475   -0.0157 H         1 <0>         0.1500
     11 C4          3.0765   -0.3083   -0.0040 C.ar      1 <0>         0.1000
     12 C5          2.0331   -1.2378    0.0201 C.ar      1 <0>        -0.1500
     13 H5          2.2515   -2.3024    0.0313 H         1 <0>         0.1500
     14 C6          2.7619    1.0533   -0.0164 C.ar      1 <0>        -0.1500
     15 H6          3.5534    1.7974   -0.0339 H         1 <0>         0.1500
     16 C7         -1.0045    1.0445    0.0268 C.2       1 <0>         0.6340
     17 C8         -3.2657    0.4060    0.0131 C.3       1 <0>         0.2800
     18 H7         -3.4833    0.9681    0.9266 H         1 <0>         0.0000
     19 H8         -3.4762    1.0285   -0.8634 H         1 <0>         0.0000
     20 C9         -4.1147   -0.8499   -0.0339 C.3       1 <0>         0.0000
     21 H9         -3.8974   -1.4944    0.8232 H         1 <0>         0.0000
     22 H10        -3.8929   -1.4314   -0.9349 H         1 <0>         0.0000
     23 H11        -5.1794   -0.6009   -0.0277 H         1 <0>         0.0000
@<TRIPOS>BOND
     1    1   16 1
     2    1   17 1
     3    2   16 2
     4    3    4 1
     5    3    5 1
     6    3   11 1
     7    6    7 ar
     8    6    9 ar
     9    6   16 1
    10    7    8 1
    11    7   12 ar
    12    9   10 1
    13    9   14 ar
    14   11   12 ar
    15   11   14 ar
    16   12   13 1
    17   14   15 1
    18   17   18 1
    19   17   19 1
    20   17   20 1
    21   20   21 1
    22   20   22 1
    23   20   23 1
