@<TRIPOS>MOLECULE
DB01197
   28    28     0     0     0
SMALL
USER_CHARGES

@<TRIPOS>ATOM
      1 S1         -4.4887   -0.7691    0.5039 S.3       1 <0>        -0.4100
      2 O1         -0.7248    1.7220    0.9151 O.2       1 <0>        -0.5700
      3 O2          1.6687    1.8947   -1.6654 O.co2     1 <0>        -0.9000
      4 O3          2.7546    3.0035    0.0157 O.co2     1 <0>        -0.9000
      5 N1          0.6778    0.0376    0.2550 N.am      1 <0>        -0.6600
      6 C1          1.8981    0.8363    0.4743 C.3       1 <0>         0.1940
      7 C2          3.0516   -0.1427    0.2218 C.3       1 <0>         0.0000
      8 C3          2.4173   -1.5158    0.4021 C.3       1 <0>         0.0000
      9 C4          1.0125   -1.3198   -0.1406 C.3       1 <0>         0.3000
     10 C5         -0.5720    0.5954    0.4349 C.2       1 <0>         0.5690
     11 C6         -1.7837   -0.2305   -0.0036 C.3       1 <0>         0.0610
     12 C7          2.1115    2.0342   -0.4875 C.2       1 <0>         0.9060
     13 C8         -3.0328    0.3062    0.7125 C.3       1 <0>         0.2300
     14 C9         -1.9155   -0.1491   -1.5270 C.3       1 <0>         0.0000
     15 H1         -5.3338   -0.0016    1.2065 H         1 <0>         0.1800
     16 H2          1.8853    1.1807    1.5152 H         1 <0>         0.0000
     17 H3          3.4524   -0.0548   -0.7953 H         1 <0>         0.0000
     18 H4          3.8821    0.0178    0.9162 H         1 <0>         0.0000
     19 H5          2.3772   -1.7665    1.4689 H         1 <0>         0.0000
     20 H6          2.9643   -2.3085   -0.1162 H         1 <0>         0.0000
     21 H7          0.3125   -2.0543    0.2616 H         1 <0>         0.0000
     22 H8          1.0025   -1.3684   -1.2338 H         1 <0>         0.0000
     23 H9         -1.6325   -1.2709    0.3006 H         1 <0>         0.0000
     24 H10        -3.2955    1.3063    0.3492 H         1 <0>         0.0000
     25 H11        -2.8492    0.3906    1.7884 H         1 <0>         0.0000
     26 H12        -0.9962   -0.4625   -2.0295 H         1 <0>         0.0000
     27 H13        -2.7219   -0.7893   -1.8951 H         1 <0>         0.0000
     28 H14        -2.1217    0.8784   -1.8482 H         1 <0>         0.0000
@<TRIPOS>BOND
     1    1   13 1
     2    1   15 1
     3    2   10 2
     4    3   12 2
     5    4   12 1
     6    5    6 1
     7    5    9 1
     8    5   10 am
     9    6    7 1
    10    6   12 1
    11    6   16 1
    12    7    8 1
    13    7   17 1
    14    7   18 1
    15    8    9 1
    16    8   19 1
    17    8   20 1
    18    9   21 1
    19    9   22 1
    20   10   11 1
    21   11   13 1
    22   11   14 1
    23   11   23 1
    24   13   24 1
    25   13   25 1
    26   14   26 1
    27   14   27 1
    28   14   28 1
