@<TRIPOS>MOLECULE
DB01294
   17    18     0     0     0
SMALL
USER_CHARGES

@<TRIPOS>ATOM
      1 C1          0.1695    0.7283    0.0778 C.ar      1 <0>         0.0860
      2 C2         -0.1266   -0.6440    0.1687 C.ar      1 <0>         0.0820
      3 C3         -0.7767    1.8720    0.1732 C.2       1 <0>         0.6340
      4 C4          1.5213    1.1029   -0.0739 C.ar      1 <0>        -0.1500
      5 O1         -1.3661   -1.2075    0.3367 O.3       1 <0>        -0.4380
      6 C5          0.9058   -1.5923    0.1279 C.ar      1 <0>        -0.1500
      7 O2         -2.0366    1.6829   -0.2780 O.3       1 <0>        -0.5050
      8 O3         -0.3993    2.9664    0.5768 O.2       1 <0>        -0.5700
      9 C6          2.5413    0.1502   -0.1316 C.ar      1 <0>        -0.1500
     10 Bi1        -2.6447   -0.1188   -0.7452 Bi        1 <0>         1.0650
     11 C7          2.2335   -1.1996   -0.0280 C.ar      1 <0>        -0.1500
     12 O4         -4.5020   -0.4006   -0.0134 O.3       1 <0>        -0.7550
     13 H1          1.7964    2.1556   -0.1415 H         1 <0>         0.1500
     14 H2          0.6682   -2.6507    0.2162 H         1 <0>         0.1500
     15 H3          3.5755    0.4675   -0.2464 H         1 <0>         0.1500
     16 H4          3.0225   -1.9454   -0.0615 H         1 <0>         0.1500
     17 H5         -4.5820   -1.3669    0.0423 H         1 <0>         0.4000
@<TRIPOS>BOND
     1    1    2 ar
     2    1    3 1
     3    1    4 ar
     4    2    5 1
     5    2    6 ar
     6    3    7 1
     7    3    8 2
     8    4    9 ar
     9    4   13 1
    10    5   10 1
    11    6   11 ar
    12    6   14 1
    13    7   10 1
    14    9   11 ar
    15    9   15 1
    16   10   12 1
    17   11   16 1
    18   12   17 1
