@<TRIPOS>MOLECULE
DB01119
   21    22     0     0     0
SMALL
USER_CHARGES

@<TRIPOS>ATOM
      1 Cl1        -4.7597    0.3456   -0.0016 Cl        1 <0>        -0.1770
      2 S1          0.3876    2.0348    0.0010 S.o2      1 <0>         1.4970
      3 O1          0.1865    2.7297   -1.2575 O.2       1 <0>        -0.6500
      4 O2          0.1903    2.7260    1.2611 O.2       1 <0>        -0.6500
      5 N1          1.0413   -0.8723   -0.0004 N.pl3     1 <0>        -0.5500
      6 H1          1.3079   -1.8506    0.0006 H         1 <0>         0.4000
      7 N2          1.8662    1.3731   -0.0015 N.2       1 <0>        -0.6380
      8 C1         -0.7888    0.7241    0.0008 C.ar      1 <0>        -0.0090
      9 C2         -0.3237   -0.5870    0.0007 C.ar      1 <0>         0.1000
     10 C3          2.0175    0.0923   -0.0015 C.2       1 <0>         0.4390
     11 C4         -2.1522    1.0357    0.0002 C.ar      1 <0>        -0.1500
     12 H2         -2.4827    2.0714   -0.0008 H         1 <0>         0.1500
     13 C5         -1.2715   -1.6175    0.0008 C.ar      1 <0>        -0.1500
     14 H3         -0.9570   -2.6596    0.0010 H         1 <0>         0.1500
     15 C6         -3.0753   -0.0037   -0.0011 C.ar      1 <0>         0.1770
     16 C7         -2.6411   -1.3293    0.0003 C.ar      1 <0>        -0.1500
     17 H4         -3.3616   -2.1442   -0.0000 H         1 <0>         0.1500
     18 C8          3.4432   -0.4179   -0.0016 C.3       1 <0>         0.0610
     19 H5          3.6007   -1.0569   -0.8748 H         1 <0>         0.0000
     20 H6          3.6168   -1.0048    0.9059 H         1 <0>         0.0000
     21 H7          4.1555    0.4111   -0.0314 H         1 <0>         0.0000
@<TRIPOS>BOND
     1    1   15 1
     2    2    3 2
     3    2    4 2
     4    2    7 1
     5    2    8 1
     6    5    6 1
     7    5    9 1
     8    5   10 1
     9    7   10 2
    10    8    9 ar
    11    8   11 ar
    12    9   13 ar
    13   10   18 1
    14   11   12 1
    15   11   15 ar
    16   13   14 1
    17   13   16 ar
    18   15   16 ar
    19   16   17 1
    20   18   19 1
    21   18   20 1
    22   18   21 1
