@<TRIPOS>MOLECULE
DB01296
   26    26     0     0     0
SMALL
USER_CHARGES

@<TRIPOS>ATOM
      1 O1         -0.5757    1.3227    0.3065 O.3       1 <0>        -0.5600
      2 O2          1.5411   -2.2443    0.3094 O.3       1 <0>        -0.6800
      3 O3         -1.1900   -2.2569   -0.4635 O.3       1 <0>        -0.6800
      4 O4          1.3975    2.5320    0.4615 O.3       1 <0>        -0.6800
      5 O5         -3.3742    1.3954   -0.4513 O.3       1 <0>        -0.6800
      6 N1          2.9664    0.1945   -0.0528 N.4       1 <0>        -0.8530
      7 C1          0.8679   -1.0948   -0.2093 C.3       1 <0>         0.2800
      8 C2         -0.6178   -1.1174    0.1753 C.3       1 <0>         0.2800
      9 C3          1.5284    0.1563    0.3496 C.3       1 <0>         0.5030
     10 C4         -1.2832    0.2012   -0.2659 C.3       1 <0>         0.2800
     11 C5          0.7754    1.4006   -0.1263 C.3       1 <0>         0.5600
     12 C6         -2.7467    0.2853    0.1866 C.3       1 <0>         0.2800
     13 H1          0.9748   -3.0087    0.0732 H         1 <0>         0.4000
     14 H2         -2.0359   -2.4694   -0.0304 H         1 <0>         0.4000
     15 H3          0.8276    3.2854    0.2186 H         1 <0>         0.4000
     16 H4         -4.2727    1.4709   -0.0845 H         1 <0>         0.4000
     17 H5          3.4287   -0.6605    0.2938 H         1 <0>         0.4500
     18 H6          3.4197    1.0185    0.3713 H         1 <0>         0.4500
     19 H7          3.1096    0.2372   -1.0688 H         1 <0>         0.4500
     20 H8          0.9734   -1.1389   -1.3012 H         1 <0>         0.0000
     21 H9         -0.7059   -1.2600    1.2599 H         1 <0>         0.0000
     22 H10         1.5506    0.1149    1.4457 H         1 <0>         0.0000
     23 H11        -1.2581    0.2976   -1.3594 H         1 <0>         0.0000
     24 H12         0.8173    1.5143   -1.2164 H         1 <0>         0.0000
     25 H13        -2.8121    0.4372    1.2692 H         1 <0>         0.0000
     26 H14        -3.3060   -0.6130   -0.0909 H         1 <0>         0.0000
@<TRIPOS>BOND
     1    1   10 1
     2    1   11 1
     3    2    7 1
     4    2   13 1
     5    3    8 1
     6    3   14 1
     7    4   11 1
     8    4   15 1
     9    5   12 1
    10    5   16 1
    11    6    9 1
    12    6   17 1
    13    6   18 1
    14    6   19 1
    15    7    8 1
    16    7    9 1
    17    7   20 1
    18    8   10 1
    19    8   21 1
    20    9   11 1
    21    9   22 1
    22   10   12 1
    23   10   23 1
    24   11   24 1
    25   12   25 1
    26   12   26 1
