@<TRIPOS>MOLECULE
DB01275
   20    21     0     0     0
SMALL
USER_CHARGES

@<TRIPOS>ATOM
      1 N1          2.2886    0.8885    0.0794 N.pl3     1 <0>        -0.5110
      2 N2          1.7791   -1.4302    0.0510 N.ar      1 <0>        -0.3100
      3 N3          0.9144   -2.4825    0.0288 N.ar      1 <0>        -0.3100
      4 N4          3.6534    0.6039   -0.0196 N.3       1 <0>        -0.7090
      5 C1         -0.0566    0.1382    0.0280 C.ar      1 <0>         0.0000
      6 C2         -0.9430   -0.9594    0.0069 C.ar      1 <0>         0.0000
      7 C3          1.3319   -0.1462    0.0582 C.ar      1 <0>         0.4100
      8 C4         -0.6315    1.4361    0.0156 C.ar      1 <0>        -0.1500
      9 C5         -2.3356   -0.7595   -0.0190 C.ar      1 <0>        -0.1500
     10 C6         -2.0170    1.6243   -0.0098 C.ar      1 <0>        -0.1500
     11 C7         -0.4065   -2.2390    0.0091 C.ar      1 <0>         0.1600
     12 C8         -2.8676    0.5272   -0.0266 C.ar      1 <0>        -0.1500
     13 H1          1.9949    1.8519    0.1834 H         1 <0>         0.4000
     14 H2          3.8455    0.1984   -0.9391 H         1 <0>         0.3600
     15 H3          3.8828   -0.1485    0.6380 H         1 <0>         0.3600
     16 H4         -0.0120    2.3289    0.0237 H         1 <0>         0.1500
     17 H5         -3.0188   -1.6072   -0.0355 H         1 <0>         0.1500
     18 H6         -2.4284    2.6313   -0.0186 H         1 <0>         0.1500
     19 H7         -1.0288   -3.1277   -0.0065 H         1 <0>         0.1500
     20 H8         -3.9451    0.6715   -0.0472 H         1 <0>         0.1500
@<TRIPOS>BOND
     1    1    4 1
     2    1    7 1
     3    1   13 1
     4    2    3 ar
     5    2    7 ar
     6    3   11 ar
     7    4   14 1
     8    4   15 1
     9    5    6 ar
    10    5    7 ar
    11    5    8 ar
    12    6    9 ar
    13    6   11 ar
    14    8   10 ar
    15    8   16 1
    16    9   12 ar
    17    9   17 1
    18   10   12 ar
    19   10   18 1
    20   11   19 1
    21   12   20 1
