@<TRIPOS>MOLECULE
DB01600
   29    30     0     0     0
SMALL
USER_CHARGES

@<TRIPOS>ATOM
      1 S1          1.3371   -1.1629   -1.1500 S.3       1 <0>        -0.0800
      2 O1          4.6366    1.9424    0.5135 O.co2     1 <0>        -0.9000
      3 O2         -1.4895   -2.3258   -1.3028 O.2       1 <0>        -0.5700
      4 O3          4.2395    1.8755   -1.7341 O.co2     1 <0>        -0.9000
      5 C1          3.8283   -0.0873   -0.4630 C.3       1 <0>         0.0740
      6 C2          2.3389   -0.1466   -0.2013 C.2       1 <0>        -0.1400
      7 C3         -0.0799   -0.6896   -0.3084 C.2       1 <0>        -0.0450
      8 C4          1.6064    0.5152    0.7630 C.2       1 <0>        -0.1500
      9 C5          4.5992   -0.8441    0.6159 C.3       1 <0>         0.0000
     10 C6          0.2184    0.2004    0.7055 C.2       1 <0>        -0.1500
     11 C7         -1.3585   -1.2581   -0.7071 C.2       1 <0>         0.5690
     12 C8          4.2762    1.3884   -0.5660 C.2       1 <0>         0.9060
     13 C9         -2.6163   -0.5307   -0.3704 C.ar      1 <0>         0.0860
     14 C10        -2.7232    0.8552   -0.5385 C.ar      1 <0>        -0.1500
     15 C11        -3.7195   -1.2684    0.0769 C.ar      1 <0>        -0.1500
     16 C12        -3.9194    1.5024   -0.2244 C.ar      1 <0>        -0.1500
     17 C13        -4.9129   -0.6159    0.3889 C.ar      1 <0>        -0.1500
     18 C14        -5.0100    0.7675    0.2428 C.ar      1 <0>        -0.1500
     19 H1          4.0592   -0.5608   -1.4274 H         1 <0>         0.0000
     20 H2          2.0531    1.1997    1.4764 H         1 <0>         0.1500
     21 H3          4.3877   -0.4607    1.6210 H         1 <0>         0.0000
     22 H4          5.6793   -0.7618    0.4503 H         1 <0>         0.0000
     23 H5          4.3368   -1.9076    0.6087 H         1 <0>         0.0000
     24 H6         -0.5136    0.6138    1.3888 H         1 <0>         0.1500
     25 H7         -1.8930    1.4421   -0.9237 H         1 <0>         0.1500
     26 H8         -3.6515   -2.3487    0.1868 H         1 <0>         0.1500
     27 H9         -4.0006    2.5792   -0.3492 H         1 <0>         0.1500
     28 H10        -5.7674   -1.1871    0.7428 H         1 <0>         0.1500
     29 H11        -5.9415    1.2746    0.4849 H         1 <0>         0.1500
@<TRIPOS>BOND
     1    1    6 1
     2    1    7 1
     3    2   12 2
     4    3   11 2
     5    4   12 1
     6    5    6 1
     7    5    9 1
     8    5   12 1
     9    5   19 1
    10    6    8 2
    11    7   10 2
    12    7   11 1
    13    8   10 1
    14    8   20 1
    15    9   21 1
    16    9   22 1
    17    9   23 1
    18   10   24 1
    19   11   13 1
    20   13   14 ar
    21   13   15 ar
    22   14   16 ar
    23   14   25 1
    24   15   17 ar
    25   15   26 1
    26   16   18 ar
    27   16   27 1
    28   17   18 ar
    29   17   28 1
    30   18   29 1
