@<TRIPOS>MOLECULE
DB01080
   20    19     0     0     0
SMALL
USER_CHARGES

@<TRIPOS>ATOM
      1 O1          3.5573    0.9698   -0.2922 O.3       1 <0>        -0.6500
      2 H1          4.4534    0.6511   -0.0558 H         1 <0>         0.5000
      3 O2          3.1451   -1.0275    0.6247 O.2       1 <0>        -0.5700
      4 N1         -1.9319   -1.7057    0.1157 N.3       1 <0>        -0.9900
      5 H2         -1.5730   -2.5136   -0.3890 H         1 <0>         0.3600
      6 H3         -2.8795   -1.5554   -0.2290 H         1 <0>         0.3600
      7 C1          0.3399   -0.8070    0.1917 C.3       1 <0>         0.0000
      8 H4          0.4173   -0.9952    1.2720 H         1 <0>         0.0000
      9 H5          0.6786   -1.7271   -0.3024 H         1 <0>         0.0000
     10 C2         -1.1216   -0.5291   -0.2006 C.3       1 <0>         0.4080
     11 H6         -1.1717   -0.3631   -1.2846 H         1 <0>         0.0000
     12 C3          1.2859    0.3343   -0.1926 C.3       1 <0>         0.0610
     13 H7          1.0402    1.2419    0.3698 H         1 <0>         0.0000
     14 H8          1.1981    0.5407   -1.2651 H         1 <0>         0.0000
     15 C4         -1.6937    0.6483    0.5368 C.2       1 <0>        -0.2880
     16 H9         -1.7677    0.5600    1.6194 H         1 <0>         0.1500
     17 C5          2.7203   -0.0125    0.1005 C.2       1 <0>         0.6590
     18 C6         -2.1134    1.7795   -0.0466 C.2       1 <0>        -0.3000
     19 H10        -2.5185    2.5910    0.5489 H         1 <0>         0.1500
     20 H11        -2.0651    1.9197   -1.1215 H         1 <0>         0.1500
@<TRIPOS>BOND
     1    1    2 1
     2    1   17 1
     3    3   17 2
     4    4    5 1
     5    4    6 1
     6    4   10 1
     7    7    8 1
     8    7    9 1
     9    7   10 1
    10    7   12 1
    11   10   11 1
    12   10   15 1
    13   12   13 1
    14   12   14 1
    15   12   17 1
    16   15   16 1
    17   15   18 2
    18   18   19 1
    19   18   20 1
