@<TRIPOS>MOLECULE
DB01273
   30    33     0     0     0
SMALL
USER_CHARGES

@<TRIPOS>ATOM
      1 N1         -2.8743   -0.0015   -1.0820 N.4       1 <0>        -0.9060
      2 N2          3.4354    1.4070   -0.1058 N.ar      1 <0>        -0.6200
      3 N3          3.4342   -1.4072   -0.1063 N.ar      1 <0>        -0.6200
      4 C1         -1.4786    1.1958    0.6471 C.3       1 <0>         0.1440
      5 C2         -1.4776   -1.1940    0.6508 C.3       1 <0>         0.1440
      6 C3         -2.0268    0.0022    1.4584 C.3       1 <0>         0.0000
      7 C4         -0.0683    0.6981    0.4437 C.ar      1 <0>        -0.1440
      8 C5         -0.0683   -0.6964    0.4454 C.ar      1 <0>        -0.1440
      9 C6         -2.1877    1.2946   -0.7138 C.3       1 <0>         0.5030
     10 C7         -2.1869   -1.2977   -0.7101 C.3       1 <0>         0.5030
     11 C8          1.1037    1.4064    0.2572 C.ar      1 <0>        -0.1500
     12 C9          1.1039   -1.4052    0.2573 C.ar      1 <0>        -0.1500
     13 C10         2.2971    0.7133    0.0730 C.ar      1 <0>         0.3100
     14 C11         2.2973   -0.7126    0.0730 C.ar      1 <0>         0.3100
     15 C12         4.5648    0.6880   -0.2785 C.ar      1 <0>         0.1600
     16 C13         4.5645   -0.6896   -0.2791 C.ar      1 <0>         0.1600
     17 H1         -1.5007    2.1355    1.2059 H         1 <0>         0.0000
     18 H2         -1.4997   -2.1313    1.2122 H         1 <0>         0.0000
     19 H3         -3.0647   -0.0036   -2.0952 H         1 <0>         0.4500
     20 H4         -3.8071   -0.0008   -0.6448 H         1 <0>         0.4500
     21 H5         -3.1172    0.0016    1.5515 H         1 <0>         0.0000
     22 H6         -1.6099    0.0038    2.4766 H         1 <0>         0.0000
     23 H7         -1.5121    1.5479   -1.5382 H         1 <0>         0.0000
     24 H8         -2.9895    2.0393   -0.6756 H         1 <0>         0.0000
     25 H9         -2.9885   -2.0423   -0.6694 H         1 <0>         0.0000
     26 H10        -1.5113   -1.5513   -1.5338 H         1 <0>         0.0000
     27 H11         1.1087    2.4925    0.2584 H         1 <0>         0.1500
     28 H12         1.1087   -2.4916    0.2588 H         1 <0>         0.1500
     29 H13         5.4761    1.2590   -0.4181 H         1 <0>         0.1500
     30 H14         5.4751   -1.2601   -0.4185 H         1 <0>         0.1500
@<TRIPOS>BOND
     1    1    9 1
     2    1   10 1
     3    1   19 1
     4    1   20 1
     5    2   13 ar
     6    2   15 ar
     7    3   14 ar
     8    3   16 ar
     9    4    6 1
    10    4    7 1
    11    4    9 1
    12    4   17 1
    13    5    6 1
    14    5    8 1
    15    5   10 1
    16    5   18 1
    17    6   21 1
    18    6   22 1
    19    7    8 ar
    20    7   11 ar
    21    8   12 ar
    22    9   23 1
    23    9   24 1
    24   10   25 1
    25   10   26 1
    26   11   13 ar
    27   11   27 1
    28   12   14 ar
    29   12   28 1
    30   13   14 ar
    31   15   16 ar
    32   15   29 1
    33   16   30 1
