@<TRIPOS>MOLECULE
DB01223
   21    22     0     0     0
SMALL
USER_CHARGES

@<TRIPOS>ATOM
      1 O1         -0.9595   -2.7011   -0.0033 O.2       1 <0>        -0.5700
      2 O2         -1.9194    1.8519   -0.0017 O.2       1 <0>        -0.5700
      3 N1          0.2928    1.2064   -0.0011 N.am      1 <0>        -0.4230
      4 N2         -1.4755   -0.4229   -0.0013 N.am      1 <0>        -0.4200
      5 N3          1.8942   -1.8933   -0.0006 N.pl3     1 <0>         0.0330
      6 N4          2.5455    0.2363    0.0012 N.2       1 <0>        -0.5650
      7 C1          1.1836    0.1563   -0.0005 C.2       1 <0>         0.2900
      8 C2          0.7580   -1.1377   -0.0019 C.2       1 <0>        -0.2370
      9 C3         -0.6076   -1.5266   -0.0032 C.2       1 <0>         0.7150
     10 C4         -1.0849    0.9407   -0.0018 C.2       1 <0>         0.6900
     11 C5          0.7375    2.5856   -0.0001 C.3       1 <0>         0.3000
     12 C6         -2.9050   -0.6799    0.0015 C.3       1 <0>         0.3000
     13 C7          2.9488   -1.0185    0.0014 C.2       1 <0>         0.0370
     14 H1          1.9425   -2.9051   -0.0003 H         1 <0>         0.2700
     15 H2          1.8288    2.6639   -0.0119 H         1 <0>         0.0000
     16 H3          0.3489    3.0823    0.8940 H         1 <0>         0.0000
     17 H4          0.3294    3.0919   -0.8812 H         1 <0>         0.0000
     18 H5         -3.1395   -1.7463   -0.0020 H         1 <0>         0.0000
     19 H6         -3.3508   -0.2111   -0.8821 H         1 <0>         0.0000
     20 H7         -3.3456   -0.2194    0.8920 H         1 <0>         0.0000
     21 H8          3.9778   -1.3535    0.0029 H         1 <0>         0.1500
@<TRIPOS>BOND
     1    1    9 2
     2    2   10 2
     3    3    7 1
     4    3   10 am
     5    3   11 1
     6    4    9 am
     7    4   10 am
     8    4   12 1
     9    5    8 1
    10    5   13 1
    11    5   14 1
    12    6    7 1
    13    6   13 2
    14    7    8 2
    15    8    9 1
    16   11   15 1
    17   11   16 1
    18   11   17 1
    19   12   18 1
    20   12   19 1
    21   12   20 1
    22   13   21 1
