@<TRIPOS>MOLECULE
DB01041
   29    31     0     0     0
SMALL
USER_CHARGES

@<TRIPOS>ATOM
      1 O1         -1.2775    0.2847   -2.4061 O.2       1 <0>        -0.5700
      2 O2          0.7677    2.5560    0.0195 O.2       1 <0>        -0.5700
      3 O3          0.1593   -2.0132    0.0296 O.2       1 <0>        -0.5700
      4 O4         -5.3339   -0.6154   -0.5749 O.2       1 <0>        -0.5700
      5 N1          0.0383    0.3292    0.0360 N.am      1 <0>        -0.4200
      6 N2         -3.2657   -0.1948   -1.4205 N.am      1 <0>        -0.4900
      7 H1         -3.6247   -0.4233   -2.3384 H         1 <0>         0.3700
      8 C1         -1.4030    0.5451    0.0128 C.3       1 <0>         0.3610
      9 H2         -1.5885    1.6204    0.1338 H         1 <0>         0.0000
     10 C2         -2.1551   -0.2090    1.1070 C.3       1 <0>         0.0000
     11 H3         -1.9969   -1.2911    1.0256 H         1 <0>         0.0000
     12 H4         -1.7935    0.0949    2.0957 H         1 <0>         0.0000
     13 C3         -3.6451    0.0733    0.9885 C.3       1 <0>         0.0610
     14 H5         -3.8561    1.1356    1.1569 H         1 <0>         0.0000
     15 H6         -4.1920   -0.5073    1.7384 H         1 <0>         0.0000
     16 C4         -1.9377    0.1821   -1.3732 C.2       1 <0>         0.5690
     17 C5          0.9537    1.3518    0.0215 C.2       1 <0>         0.5440
     18 C6          0.6517   -0.8986    0.0378 C.2       1 <0>         0.5440
     19 C7          2.2696    0.7280    0.0175 C.ar      1 <0>         0.0860
     20 C8          2.0855   -0.6431    0.0299 C.ar      1 <0>         0.0860
     21 C9         -4.1641   -0.2981   -0.3808 C.2       1 <0>         0.5690
     22 C10         3.5273    1.2969    0.0025 C.ar      1 <0>        -0.1500
     23 H7          3.6621    2.3731   -0.0085 H         1 <0>         0.1500
     24 C11         3.1473   -1.5250    0.0248 C.ar      1 <0>        -0.1500
     25 H8          2.9906   -2.5990    0.0306 H         1 <0>         0.1500
     26 C12         4.6194    0.4239   -0.0024 C.ar      1 <0>        -0.1500
     27 H9          5.6302    0.8270   -0.0155 H         1 <0>         0.1500
     28 C13         4.4314   -0.9742    0.0092 C.ar      1 <0>        -0.1500
     29 H10         5.2999   -1.6298    0.0027 H         1 <0>         0.1500
@<TRIPOS>BOND
     1    1   16 2
     2    2   17 2
     3    3   18 2
     4    4   21 2
     5    5    8 1
     6    5   17 am
     7    5   18 am
     8    6    7 1
     9    6   16 am
    10    6   21 am
    11    8    9 1
    12    8   10 1
    13    8   16 1
    14   10   11 1
    15   10   12 1
    16   10   13 1
    17   13   14 1
    18   13   15 1
    19   13   21 1
    20   17   19 1
    21   18   20 1
    22   19   20 ar
    23   19   22 ar
    24   20   24 ar
    25   22   23 1
    26   22   26 ar
    27   24   25 1
    28   24   28 ar
    29   26   27 1
    30   26   28 ar
    31   28   29 1
