@<TRIPOS>MOLECULE
DB01367
   27    28     0     0     0
SMALL
USER_CHARGES

@<TRIPOS>ATOM
      1 N1         -1.5675   -0.2942    0.0287 N.4       1 <0>        -0.9060
      2 C1         -0.3682    0.3876    0.5862 C.3       1 <0>         0.6460
      3 C2         -0.1380    1.7403   -0.1161 C.3       1 <0>         0.0000
      4 C3          1.3734    2.0016   -0.0636 C.3       1 <0>         0.1440
      5 C4          0.9214   -0.3204    0.2937 C.ar      1 <0>        -0.1440
      6 C5          1.9059    0.6028   -0.0837 C.ar      1 <0>        -0.1440
      7 C6          1.2235   -1.6705    0.4024 C.ar      1 <0>        -0.1500
      8 C7          3.1983    0.1977   -0.3737 C.ar      1 <0>        -0.1500
      9 C8         -2.8780    0.3425    0.3318 C.3       1 <0>         0.7030
     10 C9          2.5219   -2.0883    0.1005 C.ar      1 <0>        -0.1500
     11 C10         3.5013   -1.1618   -0.2870 C.ar      1 <0>        -0.1500
     12 C11        -3.9213   -0.5076   -0.2331 C.1       1 <0>        -0.2000
     13 C12        -4.7759   -1.2103   -0.7002 C.1       1 <0>        -0.1770
     14 H1         -1.4642   -0.3935   -0.9901 H         1 <0>         0.4500
     15 H2         -1.5977   -1.2547    0.3917 H         1 <0>         0.4500
     16 H3         -0.5025    0.5007    1.6680 H         1 <0>         0.0000
     17 H4         -0.4506    1.6905   -1.1692 H         1 <0>         0.0000
     18 H5         -0.7048    2.5528    0.3500 H         1 <0>         0.0000
     19 H6          1.6586    2.5004    0.8690 H         1 <0>         0.0000
     20 H7          1.7068    2.5902   -0.9221 H         1 <0>         0.0000
     21 H8          0.4903   -2.4029    0.7240 H         1 <0>         0.1500
     22 H9          3.9625    0.9149   -0.6563 H         1 <0>         0.1500
     23 H10        -2.9648    0.4229    1.4197 H         1 <0>         0.0000
     24 H11        -2.8836    1.3389   -0.1193 H         1 <0>         0.0000
     25 H12         2.7837   -3.1419    0.1749 H         1 <0>         0.1500
     26 H13         4.5076   -1.5059   -0.5121 H         1 <0>         0.1500
     27 H14        -5.5380   -1.8320   -1.1143 H         1 <0>         0.1770
@<TRIPOS>BOND
     1    1    2 1
     2    1    9 1
     3    1   14 1
     4    1   15 1
     5    2    3 1
     6    2    5 1
     7    2   16 1
     8    3    4 1
     9    3   17 1
    10    3   18 1
    11    4    6 1
    12    4   19 1
    13    4   20 1
    14    5    6 ar
    15    5    7 ar
    16    6    8 ar
    17    7   10 ar
    18    7   21 1
    19    8   11 ar
    20    8   22 1
    21    9   12 1
    22    9   23 1
    23    9   24 1
    24   10   11 ar
    25   10   25 1
    26   11   26 1
    27   12   13 3
    28   13   27 1
