@<TRIPOS>MOLECULE
DB01133
   26    26     0     0     0
SMALL
USER_CHARGES

@<TRIPOS>ATOM
      1 Cl1         5.7167    0.0239    0.8327 Cl        1 <0>        -0.1770
      2 S1         -0.1989   -0.3070   -1.3085 S.3       1 <0>        -0.3320
      3 P1         -2.3160   -1.4914    0.3181 P.3       1 <0>         1.2420
      4 P2         -2.0841    1.3936    0.2162 P.3       1 <0>         1.2420
      5 O1         -3.3261   -1.1554   -0.9131 O.3       1 <0>        -0.7710
      6 H1         -3.9896   -1.8749   -1.0256 H         1 <0>         0.5000
      7 O2         -3.2617   -1.1152    1.5703 O.3       1 <0>        -0.7710
      8 H2         -3.3290   -0.1478    1.8200 H         1 <0>         0.5000
      9 O3         -1.0761    2.6089   -0.0472 O.3       1 <0>        -0.7710
     10 H3         -1.5017    3.4894   -0.0372 H         1 <0>         0.5000
     11 O4         -2.9558    1.2908   -1.1353 O.3       1 <0>        -0.7710
     12 H4         -3.2212    0.3454   -1.3482 H         1 <0>         0.5000
     13 O5         -1.7814   -2.8851    0.3163 O.2       1 <0>        -0.7000
     14 O6         -2.9316    1.4630    1.4556 O.2       1 <0>        -0.7000
     15 C1         -1.1167   -0.1338    0.2397 C.3       1 <0>         0.2300
     16 H5         -0.4705   -0.1632    1.1204 H         1 <0>         0.0000
     17 C2          1.4638   -0.2064   -0.6775 C.ar      1 <0>         0.1020
     18 C3          2.0698    1.0375   -0.4662 C.ar      1 <0>        -0.1500
     19 H6          1.5279    1.9581   -0.6724 H         1 <0>         0.1500
     20 C4          2.1837   -1.3774   -0.4163 C.ar      1 <0>        -0.1500
     21 H7          1.7303   -2.3531   -0.5813 H         1 <0>         0.1500
     22 C5          3.3834    1.1099    0.0055 C.ar      1 <0>        -0.1500
     23 H8          3.8465    2.0812    0.1632 H         1 <0>         0.1500
     24 C6          3.4978   -1.3059    0.0553 C.ar      1 <0>        -0.1500
     25 H9          4.0471   -2.2228    0.2528 H         1 <0>         0.1500
     26 C7          4.0934   -0.0624    0.2626 C.ar      1 <0>         0.1770
@<TRIPOS>BOND
     1    1   26 1
     2    2   15 1
     3    2   17 1
     4    3    5 1
     5    3    7 1
     6    3   13 2
     7    3   15 1
     8    4    9 1
     9    4   11 1
    10    4   14 2
    11    4   15 1
    12    5    6 1
    13    7    8 1
    14    9   10 1
    15   11   12 1
    16   15   16 1
    17   17   18 ar
    18   17   20 ar
    19   18   19 1
    20   18   22 ar
    21   20   21 1
    22   20   24 ar
    23   22   23 1
    24   22   26 ar
    25   24   25 1
    26   24   26 ar
