@<TRIPOS>MOLECULE
DB01158
   30    30     0     0     0
SMALL
USER_CHARGES

@<TRIPOS>ATOM
      1 Br1         1.8578   -3.0309   -0.3265 Br        1 <0>        -0.1110
      2 N1         -1.2482   -0.3921    0.1609 N.4       1 <0>        -1.0120
      3 C1         -0.0107   -0.6892    1.0751 C.3       1 <0>         0.6460
      4 C2         -1.3372    1.1170   -0.1311 C.3       1 <0>         0.5030
      5 C3         -2.4852   -0.8709    0.9297 C.3       1 <0>         0.5030
      6 C4         -1.1452   -1.1893   -1.1340 C.3       1 <0>         0.5030
      7 C5          1.3626   -0.2989    0.5714 C.ar      1 <0>        -0.1440
      8 C6         -2.6140    1.5409   -0.8434 C.3       1 <0>         0.0000
      9 C7          2.2471   -1.1887   -0.0663 C.ar      1 <0>         0.1110
     10 C8          1.8042    1.0245    0.7793 C.ar      1 <0>        -0.1500
     11 C9          3.5022   -0.7537   -0.5147 C.ar      1 <0>        -0.1500
     12 C10         3.0556    1.4542    0.3328 C.ar      1 <0>        -0.1500
     13 C11         3.9018    0.5669   -0.3207 C.ar      1 <0>        -0.1500
     14 H1         -0.0542   -1.7555    1.3222 H         1 <0>         0.0000
     15 H2         -0.2040   -0.1617    2.0192 H         1 <0>         0.0000
     16 H3         -0.4753    1.3805   -0.7515 H         1 <0>         0.0000
     17 H4         -1.2633    1.6359    0.8315 H         1 <0>         0.0000
     18 H5         -3.3592   -0.8054    0.2769 H         1 <0>         0.0000
     19 H6         -2.6085   -0.2376    1.8134 H         1 <0>         0.0000
     20 H7         -2.3289   -1.9140    1.2227 H         1 <0>         0.0000
     21 H8         -2.0672   -1.0590   -1.7058 H         1 <0>         0.0000
     22 H9         -1.0327   -2.2463   -0.8794 H         1 <0>         0.0000
     23 H10        -0.2912   -0.8242   -1.7093 H         1 <0>         0.0000
     24 H11        -2.7448    1.0300   -1.8012 H         1 <0>         0.0000
     25 H12        -2.5716    2.6154   -1.0532 H         1 <0>         0.0000
     26 H13        -3.5026    1.3724   -0.2288 H         1 <0>         0.0000
     27 H14         1.1780    1.7427    1.3057 H         1 <0>         0.1500
     28 H15         4.1849   -1.4405   -1.0099 H         1 <0>         0.1500
     29 H16         3.3721    2.4804    0.5020 H         1 <0>         0.1500
     30 H17         4.8777    0.8974   -0.6669 H         1 <0>         0.1500
@<TRIPOS>BOND
     1    1    9 1
     2    2    3 1
     3    2    4 1
     4    2    5 1
     5    2    6 1
     6    3    7 1
     7    3   14 1
     8    3   15 1
     9    4    8 1
    10    4   16 1
    11    4   17 1
    12    5   18 1
    13    5   19 1
    14    5   20 1
    15    6   21 1
    16    6   22 1
    17    6   23 1
    18    7    9 ar
    19    7   10 ar
    20    8   24 1
    21    8   25 1
    22    8   26 1
    23    9   11 ar
    24   10   12 ar
    25   10   27 1
    26   11   13 ar
    27   11   28 1
    28   12   13 ar
    29   12   29 1
    30   13   30 1
