@<TRIPOS>MOLECULE
DB01511
   30    32     0     0     0
SMALL
USER_CHARGES

@<TRIPOS>ATOM
      1 Cl1        -0.9409    4.0934    1.5649 Cl        1 <0>        -0.1770
      2 Cl2         0.8070    0.7154   -2.4636 Cl        1 <0>        -0.1770
      3 O1         -2.7289   -3.2787   -1.1737 O.2       1 <0>        -0.5700
      4 N1         -2.6677   -1.0529   -0.8078 N.am      1 <0>        -0.5470
      5 N2         -0.0439   -2.0515    0.3781 N.2       1 <0>        -0.6960
      6 C1         -0.8925    0.2795    0.3259 C.ar      1 <0>         0.0860
      7 C2          0.1539   -0.7855    0.2311 C.2       1 <0>         0.2780
      8 C3         -2.1658    0.1382   -0.2548 C.ar      1 <0>         0.1170
      9 C4          1.5600   -0.3782   -0.0550 C.ar      1 <0>         0.0860
     10 C5         -0.5284    1.5085    0.9067 C.ar      1 <0>        -0.1500
     11 C6         -1.3803   -2.5347    0.6764 C.3       1 <0>         0.3070
     12 C7         -3.0137    1.2535   -0.3272 C.ar      1 <0>        -0.1500
     13 C8         -2.2771   -2.3353   -0.5250 C.2       1 <0>         0.5690
     14 C9         -1.4033    2.5927    0.8618 C.ar      1 <0>         0.1770
     15 C10        -2.6395    2.4750    0.2351 C.ar      1 <0>        -0.1500
     16 C11         1.9326    0.3072   -1.2189 C.ar      1 <0>         0.1770
     17 C12         2.5354   -0.7439    0.8845 C.ar      1 <0>        -0.1500
     18 C13         3.2732    0.6512   -1.4187 C.ar      1 <0>        -0.1500
     19 C14         3.8704   -0.3982    0.6775 C.ar      1 <0>        -0.1500
     20 C15         4.2376    0.3021   -0.4714 C.ar      1 <0>        -0.1500
     21 H1         -3.4196   -0.9932   -1.4844 H         1 <0>         0.3700
     22 H2          0.4415    1.6359    1.3819 H         1 <0>         0.1500
     23 H3         -1.8087   -2.0584    1.5668 H         1 <0>         0.0000
     24 H4         -1.3278   -3.6074    0.8889 H         1 <0>         0.0000
     25 H5         -3.9940    1.1760   -0.7957 H         1 <0>         0.1500
     26 H6         -3.3198    3.3220    0.1855 H         1 <0>         0.1500
     27 H7          2.2563   -1.2985    1.7782 H         1 <0>         0.1500
     28 H8          3.5783    1.1807   -2.3183 H         1 <0>         0.1500
     29 H9          4.6261   -0.6803    1.4068 H         1 <0>         0.1500
     30 H10         5.2797    0.5654   -0.6356 H         1 <0>         0.1500
@<TRIPOS>BOND
     1    1   14 1
     2    2   16 1
     3    3   13 2
     4    4    8 1
     5    4   13 am
     6    4   21 1
     7    5    7 2
     8    5   11 1
     9    6    7 1
    10    6    8 ar
    11    6   10 ar
    12    7    9 1
    13    8   12 ar
    14    9   16 ar
    15    9   17 ar
    16   10   14 ar
    17   10   22 1
    18   11   13 1
    19   11   23 1
    20   11   24 1
    21   12   15 ar
    22   12   25 1
    23   14   15 ar
    24   15   26 1
    25   16   18 ar
    26   17   19 ar
    27   17   27 1
    28   18   20 ar
    29   18   28 1
    30   19   20 ar
    31   19   29 1
    32   20   30 1
