@<TRIPOS>MOLECULE
DB01213
   12    12     0     0     0
SMALL
USER_CHARGES

@<TRIPOS>ATOM
      1 N1         -1.9076   -0.2172   -0.0002 N.pl3     1 <0>         0.3000
      2 N2         -1.7411    1.1147   -0.0001 N.2       1 <0>        -0.7070
      3 C1          0.2741    0.0251   -0.0005 C.2       1 <0>        -0.1810
      4 C2         -0.7350   -0.9136    0.0002 C.2       1 <0>        -0.3020
      5 C3          1.7364   -0.1969    0.0003 C.3       1 <0>         0.1810
      6 C4         -0.4143    1.2605    0.0001 C.2       1 <0>         0.1390
      7 H1         -2.8531   -0.5824    0.0000 H         1 <0>         0.2700
      8 H2         -0.7198   -1.9948    0.0004 H         1 <0>         0.1500
      9 H3          1.9772   -1.2639   -0.0071 H         1 <0>         0.0000
     10 H4          2.1906    0.2486    0.8909 H         1 <0>         0.0000
     11 H5          2.1924    0.2595   -0.8841 H         1 <0>         0.0000
     12 H6          0.0002    2.2604    0.0000 H         1 <0>         0.1500
@<TRIPOS>BOND
     1    1    2 1
     2    1    4 1
     3    1    7 1
     4    2    6 2
     5    3    4 2
     6    3    5 1
     7    3    6 1
     8    4    8 1
     9    5    9 1
    10    5   10 1
    11    5   11 1
    12    6   12 1
