@<TRIPOS>MOLECULE
DB01169
    5     6     0     0     0
SMALL
USER_CHARGES

@<TRIPOS>ATOM
      1 As1         0.0006   -0.0047   -1.1300 As        1 <0>         0.9450
      2 As2        -0.0013    0.0050    1.1300 As        1 <0>         0.9450
      3 O1          1.3392    0.2518    0.0001 O.3       1 <0>        -0.6300
      4 O2         -0.8875    1.0333   -0.0047 O.3       1 <0>        -0.6300
      5 O3         -0.4510   -1.2855    0.0047 O.3       1 <0>        -0.6300
@<TRIPOS>BOND
     1    1    3 1
     2    1    4 1
     3    1    5 1
     4    2    3 1
     5    2    4 1
     6    2    5 1
