@<TRIPOS>MOLECULE
DB01181
   29    29     0     0     0
SMALL
USER_CHARGES

@<TRIPOS>ATOM
      1 Cl1         2.9470   -3.8256    0.1503 Cl        1 <0>        -0.2900
      2 Cl2        -5.4385   -0.4290    0.2211 Cl        1 <0>        -0.2900
      3 P1         -0.5296    0.1885    0.5140 P.3       1 <0>         1.5070
      4 O1         -0.5541    1.7853    0.2174 O.3       1 <0>        -0.5510
      5 O2         -0.9562   -0.1140    1.9204 O.2       1 <0>        -0.7000
      6 N1          1.0260   -0.2459    0.1484 N.pl3     1 <0>        -0.8080
      7 N2         -1.4769   -0.4424   -0.6779 N.pl3     1 <0>        -0.8980
      8 C1          1.7361    0.6585   -0.7558 C.3       1 <0>         0.2700
      9 C2          1.8190    2.0709   -0.1626 C.3       1 <0>         0.0000
     10 C3          0.5954    2.4916    0.6498 C.3       1 <0>         0.2800
     11 C4          1.3148   -1.6614   -0.1052 C.3       1 <0>         0.2700
     12 C5         -2.9053   -0.1241   -0.7202 C.3       1 <0>         0.2700
     13 C6          2.6782   -2.0873    0.4388 C.3       1 <0>         0.2900
     14 C7         -3.6899   -0.6878    0.4636 C.3       1 <0>         0.2900
     15 H1         -1.0877   -0.2272   -1.5913 H         1 <0>         0.3600
     16 H2          2.7568    0.3227   -0.9674 H         1 <0>         0.0000
     17 H3          1.2129    0.6948   -1.7189 H         1 <0>         0.0000
     18 H4          1.9570    2.7764   -0.9914 H         1 <0>         0.0000
     19 H5          2.7096    2.1687    0.4705 H         1 <0>         0.0000
     20 H6          0.4125    3.5657    0.5422 H         1 <0>         0.0000
     21 H7          0.7525    2.2935    1.7163 H         1 <0>         0.0000
     22 H8          0.5523   -2.2697    0.3987 H         1 <0>         0.0000
     23 H9          1.2262   -1.8836   -1.1760 H         1 <0>         0.0000
     24 H10        -3.0392    0.9608   -0.7845 H         1 <0>         0.0000
     25 H11        -3.3071   -0.5494   -1.6479 H         1 <0>         0.0000
     26 H12         2.7406   -1.9200    1.5188 H         1 <0>         0.0000
     27 H13         3.5011   -1.5536   -0.0434 H         1 <0>         0.0000
     28 H14        -3.4249   -0.1927    1.4001 H         1 <0>         0.0000
     29 H15        -3.5284   -1.7642    0.5723 H         1 <0>         0.0000
@<TRIPOS>BOND
     1    1   13 1
     2    2   14 1
     3    3    4 1
     4    3    5 2
     5    3    6 1
     6    3    7 1
     7    4   10 1
     8    6    8 1
     9    6   11 1
    10    7   12 1
    11    7   15 1
    12    8    9 1
    13    8   16 1
    14    8   17 1
    15    9   10 1
    16    9   18 1
    17    9   19 1
    18   10   20 1
    19   10   21 1
    20   11   13 1
    21   11   22 1
    22   11   23 1
    23   12   14 1
    24   12   24 1
    25   12   25 1
    26   13   26 1
    27   13   27 1
    28   14   28 1
    29   14   29 1
