@<TRIPOS>MOLECULE
DB01364
   28    28     0     0     0
SMALL
USER_CHARGES

@<TRIPOS>ATOM
      1 O1          0.5162   -0.5700    1.8913 O.3       1 <0>        -0.6800
      2 N1          2.5687    0.3269    0.4252 N.4       1 <0>        -0.9060
      3 C1          1.2121    0.2668   -0.2658 C.3       1 <0>         0.5030
      4 C2          0.1592    0.3762    0.8717 C.3       1 <0>         0.4240
      5 C3         -1.2796    0.2368    0.4284 C.ar      1 <0>        -0.1440
      6 C4          1.1225   -1.0384   -1.0582 C.3       1 <0>         0.0000
      7 C5         -1.9400   -1.0019    0.4392 C.ar      1 <0>        -0.1500
      8 C6         -1.9767    1.3668   -0.0295 C.ar      1 <0>        -0.1500
      9 C7          3.7873    0.2355   -0.4162 C.3       1 <0>         0.5030
     10 C8         -3.2659   -1.1055    0.0131 C.ar      1 <0>        -0.1500
     11 C9         -3.3035    1.2601   -0.4547 C.ar      1 <0>        -0.1500
     12 C10        -3.9476    0.0247   -0.4317 C.ar      1 <0>        -0.1500
     13 H1         -0.2396   -0.6285    2.5066 H         1 <0>         0.4000
     14 H2          2.6185    1.1981    0.9702 H         1 <0>         0.4500
     15 H3          2.5478   -0.4196    1.1440 H         1 <0>         0.4500
     16 H4          1.1530    1.1292   -0.9394 H         1 <0>         0.0000
     17 H5          0.2684    1.3593    1.3497 H         1 <0>         0.0000
     18 H6          1.2577   -1.9145   -0.4155 H         1 <0>         0.0000
     19 H7          1.8779   -1.0783   -1.8489 H         1 <0>         0.0000
     20 H8          0.1539   -1.1296   -1.5589 H         1 <0>         0.0000
     21 H9         -1.4289   -1.9026    0.7707 H         1 <0>         0.1500
     22 H10        -1.5003    2.3435   -0.0548 H         1 <0>         0.1500
     23 H11         3.7083    0.9721   -1.2183 H         1 <0>         0.0000
     24 H12         3.8712   -0.7805   -0.8064 H         1 <0>         0.0000
     25 H13         4.6430    0.4578    0.2255 H         1 <0>         0.0000
     26 H14        -3.7675   -2.0698    0.0256 H         1 <0>         0.1500
     27 H15        -3.8355    2.1417   -0.8015 H         1 <0>         0.1500
     28 H16        -4.9805   -0.0566   -0.7613 H         1 <0>         0.1500
@<TRIPOS>BOND
     1    1    4 1
     2    1   13 1
     3    2    3 1
     4    2    9 1
     5    2   14 1
     6    2   15 1
     7    3    4 1
     8    3    6 1
     9    3   16 1
    10    4    5 1
    11    4   17 1
    12    5    7 ar
    13    5    8 ar
    14    6   18 1
    15    6   19 1
    16    6   20 1
    17    7   10 ar
    18    7   21 1
    19    8   11 ar
    20    8   22 1
    21    9   23 1
    22    9   24 1
    23    9   25 1
    24   10   12 ar
    25   10   26 1
    26   11   12 ar
    27   11   27 1
    28   12   28 1
