@<TRIPOS>MOLECULE
DB01612
   19    18     0     0     0
SMALL
USER_CHARGES

@<TRIPOS>ATOM
      1 C1          0.5737    0.3273    0.0019 C.3       1 <0>         0.0000
      2 C2          1.8130   -0.5678   -0.0003 C.3       1 <0>         0.0000
      3 C3         -1.9534    0.3865    0.0014 C.3       1 <0>         0.2800
      4 C4         -0.7101   -0.4996    0.0010 C.3       1 <0>         0.0000
      5 N1         -4.1427    0.2424   -0.0026 N.2       1 <0>        -0.0240
      6 O1         -5.2533   -0.2966   -0.0041 O.2       1 <0>        -0.1620
      7 O2         -3.1022   -0.4635   -0.0000 O.3       1 <0>        -0.0940
      8 C5          3.0938    0.2521   -0.0014 C.3       1 <0>         0.0000
      9 H1          0.5914    0.9796   -0.8796 H         1 <0>         0.0000
     10 H2          0.5923    0.9770    0.8855 H         1 <0>         0.0000
     11 H3          1.8014   -1.2185   -0.8820 H         1 <0>         0.0000
     12 H4          1.8043   -1.2191    0.8821 H         1 <0>         0.0000
     13 H5         -1.9519    1.0248   -0.8940 H         1 <0>         0.0000
     14 H6         -1.9527    1.0233    0.8972 H         1 <0>         0.0000
     15 H7         -0.7368   -1.1609    0.8767 H         1 <0>         0.0000
     16 H8         -0.7366   -1.1603   -0.8744 H         1 <0>         0.0000
     17 H9          3.1513    0.8883   -0.8913 H         1 <0>         0.0000
     18 H10         3.9673   -0.4077    0.0000 H         1 <0>         0.0000
     19 H11         3.1514    0.8928    0.8838 H         1 <0>         0.0000
@<TRIPOS>BOND
     1    1    2 1
     2    1    4 1
     3    1    9 1
     4    1   10 1
     5    2    8 1
     6    2   11 1
     7    2   12 1
     8    3    4 1
     9    3    7 1
    10    3   13 1
    11    3   14 1
    12    4   15 1
    13    4   16 1
    14    5    6 2
    15    5    7 1
    16    8   17 1
    17    8   18 1
    18    8   19 1
