@<TRIPOS>MOLECULE
DB01056
   30    30     0     0     0
SMALL
USER_CHARGES

@<TRIPOS>ATOM
      1 O1          1.3964    1.4359   -0.9929 O.2       1 <0>        -0.5700
      2 N1          0.4019   -0.2727    0.2511 N.am      1 <0>        -0.5470
      3 H1          0.6445   -1.1411    0.7128 H         1 <0>         0.3700
      4 N2          3.8126    1.0894    0.2325 N.3       1 <0>        -0.9900
      5 H2          3.8236    1.4098   -0.7405 H         1 <0>         0.3600
      6 H3          3.4766    1.8984    0.7566 H         1 <0>         0.3600
      7 C1         -0.9893   -0.0350    0.0988 C.ar      1 <0>         0.1170
      8 C2         -1.5793    1.2462    0.0118 C.ar      1 <0>        -0.1440
      9 C3         -1.8271   -1.1826    0.0738 C.ar      1 <0>        -0.1440
     10 C4          2.8188    0.0087    0.3412 C.3       1 <0>         0.3310
     11 H4          2.7061   -0.2535    1.3994 H         1 <0>         0.0000
     12 C5          1.4608    0.4969   -0.2029 C.2       1 <0>         0.5690
     13 C6         -2.9680    1.3486   -0.2074 C.ar      1 <0>        -0.1500
     14 H5         -3.4346    2.3284   -0.3011 H         1 <0>         0.1500
     15 C7         -3.2119   -1.0375   -0.1136 C.ar      1 <0>        -0.1500
     16 H6         -3.8594   -1.9106   -0.1508 H         1 <0>         0.1500
     17 C8         -0.8483    2.5474    0.2013 C.3       1 <0>         0.1440
     18 H7         -1.5090    3.2999    0.6478 H         1 <0>         0.0000
     19 H8         -0.5036    2.9405   -0.7594 H         1 <0>         0.0000
     20 H9         -0.0126    2.4455    0.9006 H         1 <0>         0.0000
     21 C9         -1.2832   -2.5832    0.2061 C.3       1 <0>         0.1440
     22 H10        -2.0649   -3.3375    0.0647 H         1 <0>         0.0000
     23 H11        -0.8603   -2.7319    1.2052 H         1 <0>         0.0000
     24 H12        -0.5147   -2.7700   -0.5516 H         1 <0>         0.0000
     25 C10        -3.7768    0.2200   -0.2720 C.ar      1 <0>        -0.1500
     26 H13        -4.8472    0.3237   -0.4280 H         1 <0>         0.1500
     27 C11         3.2969   -1.2073   -0.4436 C.3       1 <0>         0.0000
     28 H14         3.3884   -0.9841   -1.5126 H         1 <0>         0.0000
     29 H15         2.5918   -2.0400   -0.3464 H         1 <0>         0.0000
     30 H16         4.2716   -1.5521   -0.0808 H         1 <0>         0.0000
@<TRIPOS>BOND
     1    1   12 2
     2    2    3 1
     3    2    7 1
     4    2   12 am
     5    4    5 1
     6    4    6 1
     7    4   10 1
     8    7    8 ar
     9    7    9 ar
    10    8   13 ar
    11    8   17 1
    12    9   15 ar
    13    9   21 1
    14   10   11 1
    15   10   12 1
    16   10   27 1
    17   13   14 1
    18   13   25 ar
    19   15   16 1
    20   15   25 ar
    21   17   18 1
    22   17   19 1
    23   17   20 1
    24   21   22 1
    25   21   23 1
    26   21   24 1
    27   25   26 1
    28   27   28 1
    29   27   29 1
    30   27   30 1
