@<TRIPOS>MOLECULE
DB01143
   27    26     0     0     0
SMALL
USER_CHARGES

@<TRIPOS>ATOM
      1 S1         -3.3879   -1.0674    0.1571 S.3       1 <0>        -0.4780
      2 P1         -5.0309    0.1617   -0.2034 P.3       1 <0>         1.4900
      3 O1         -6.4250   -0.6430   -0.1974 O.3       1 <0>        -0.7710
      4 H1         -7.1639   -0.1042   -0.5405 H         1 <0>         0.5000
      5 O2         -5.3073    1.1403    1.0472 O.3       1 <0>        -0.7710
      6 H2         -5.1239    0.7414    1.9194 H         1 <0>         0.5000
      7 O3         -4.8633    0.9291   -1.4796 O.2       1 <0>        -0.7000
      8 N1          0.5014    0.1685   -0.1289 N.3       1 <0>        -0.9000
      9 H3          0.4728    0.5234   -1.0857 H         1 <0>         0.3600
     10 N2          5.3883    0.6790   -0.2110 N.3       1 <0>        -0.9900
     11 H4          6.2718    0.2386    0.0409 H         1 <0>         0.3600
     12 H5          5.3004    1.5062    0.3787 H         1 <0>         0.3600
     13 C1          1.7776   -0.5177    0.0958 C.3       1 <0>         0.2700
     14 H6          1.8344   -0.8657    1.1343 H         1 <0>         0.0000
     15 H7          1.8585   -1.3917   -0.5613 H         1 <0>         0.0000
     16 C2          2.9406    0.4399   -0.1841 C.3       1 <0>         0.0000
     17 H8          2.8930    0.7842   -1.2252 H         1 <0>         0.0000
     18 H9          2.8478    1.3280    0.4543 H         1 <0>         0.0000
     19 C3         -0.6392   -0.7307    0.0998 C.3       1 <0>         0.2700
     20 H10        -0.5801   -1.5814   -0.5896 H         1 <0>         0.0000
     21 H11        -0.5985   -1.1156    1.1256 H         1 <0>         0.0000
     22 C4         -1.9558    0.0236   -0.1126 C.3       1 <0>         0.2300
     23 H12        -2.0111    0.4163   -1.1336 H         1 <0>         0.0000
     24 H13        -2.0323    0.8686    0.5792 H         1 <0>         0.0000
     25 C5          4.2887   -0.2385    0.0713 C.3       1 <0>         0.2700
     26 H14         4.3915   -1.1241   -0.5652 H         1 <0>         0.0000
     27 H15         4.3521   -0.5688    1.1144 H         1 <0>         0.0000
@<TRIPOS>BOND
     1    1    2 1
     2    1   22 1
     3    2    3 1
     4    2    5 1
     5    2    7 2
     6    3    4 1
     7    5    6 1
     8    8    9 1
     9    8   13 1
    10    8   19 1
    11   10   11 1
    12   10   12 1
    13   10   25 1
    14   13   14 1
    15   13   15 1
    16   13   16 1
    17   16   17 1
    18   16   18 1
    19   16   25 1
    20   19   20 1
    21   19   21 1
    22   19   22 1
    23   22   23 1
    24   22   24 1
    25   25   26 1
    26   25   27 1
