@<TRIPOS>MOLECULE
DB01365
   30    30     0     0     0
SMALL
USER_CHARGES

@<TRIPOS>ATOM
      1 N1          1.1876    1.0569   -0.2559 N.4       1 <0>        -0.9060
      2 C1          1.2855   -0.3798    0.2385 C.3       1 <0>         0.5030
      3 C2          0.0872   -0.6503    1.2006 C.3       1 <0>         0.1440
      4 C3          2.5923   -0.5446    1.0304 C.3       1 <0>         0.0000
      5 C4          1.2748   -1.3281   -0.9682 C.3       1 <0>         0.0000
      6 C5         -1.2861   -0.3184    0.6605 C.ar      1 <0>        -0.1440
      7 C6          2.2412    1.5819   -1.1691 C.3       1 <0>         0.5030
      8 C7         -1.8891    0.9133    0.9594 C.ar      1 <0>        -0.1500
      9 C8         -1.9784   -1.2315   -0.1465 C.ar      1 <0>        -0.1500
     10 C9         -3.1452    1.2327    0.4407 C.ar      1 <0>        -0.1500
     11 C10        -3.2333   -0.9095   -0.6643 C.ar      1 <0>        -0.1500
     12 C11        -3.8142    0.3237   -0.3754 C.ar      1 <0>        -0.1500
     13 H1          1.1319    1.6838    0.5580 H         1 <0>         0.4500
     14 H2          0.2808    1.1647   -0.7370 H         1 <0>         0.4500
     15 H3          0.2338   -0.0824    2.1308 H         1 <0>         0.0000
     16 H4          0.0950   -1.7047    1.5118 H         1 <0>         0.0000
     17 H5          2.6434   -1.5380    1.4905 H         1 <0>         0.0000
     18 H6          2.6695    0.1980    1.8331 H         1 <0>         0.0000
     19 H7          3.4757   -0.4422    0.3916 H         1 <0>         0.0000
     20 H8          1.1722   -2.3701   -0.6430 H         1 <0>         0.0000
     21 H9          2.2075   -1.2655   -1.5397 H         1 <0>         0.0000
     22 H10         0.4550   -1.1057   -1.6584 H         1 <0>         0.0000
     23 H11         3.1996    1.5715   -0.6468 H         1 <0>         0.0000
     24 H12         1.9657    2.6104   -1.4175 H         1 <0>         0.0000
     25 H13         2.2638    0.9745   -2.0746 H         1 <0>         0.0000
     26 H14        -1.3973    1.6318    1.6123 H         1 <0>         0.1500
     27 H15        -1.5525   -2.2062   -0.3760 H         1 <0>         0.1500
     28 H16        -3.6075    2.1875    0.6801 H         1 <0>         0.1500
     29 H17        -3.7637   -1.6240   -1.2897 H         1 <0>         0.1500
     30 H18        -4.7951    0.5701   -0.7761 H         1 <0>         0.1500
@<TRIPOS>BOND
     1    1    2 1
     2    1    7 1
     3    1   13 1
     4    1   14 1
     5    2    3 1
     6    2    4 1
     7    2    5 1
     8    3    6 1
     9    3   15 1
    10    3   16 1
    11    4   17 1
    12    4   18 1
    13    4   19 1
    14    5   20 1
    15    5   21 1
    16    5   22 1
    17    6    8 ar
    18    6    9 ar
    19    7   23 1
    20    7   24 1
    21    7   25 1
    22    8   10 ar
    23    8   26 1
    24    9   11 ar
    25    9   27 1
    26   10   12 ar
    27   10   28 1
    28   11   12 ar
    29   11   29 1
    30   12   30 1
