@<TRIPOS>MOLECULE
DB01055
   24    24     0     0     0
SMALL
USER_CHARGES

@<TRIPOS>ATOM
      1 O1         -4.0767   -0.2426    0.5966 O.3       1 <0>        -0.6500
      2 H1         -4.9299    0.1469    0.3105 H         1 <0>         0.5000
      3 O2          3.3733   -2.1170   -0.0386 O.3       1 <0>        -0.5270
      4 H2          2.7643   -2.8289   -0.2938 H         1 <0>         0.4500
      5 O3         -3.4407    1.4323   -0.7399 O.2       1 <0>        -0.5700
      6 O4          4.5853    0.3507    0.6554 O.2       1 <0>        -0.5700
      7 N1          0.6707    0.3783   -0.4098 N.pl3     1 <0>        -0.5690
      8 N2         -1.6934   -1.3779    0.6842 N.3       1 <0>        -0.9900
      9 H3         -2.4482   -1.5268    1.3628 H         1 <0>         0.3600
     10 H4         -1.9778   -1.9223   -0.1311 H         1 <0>         0.3600
     11 C1         -0.7493    0.4076   -0.8234 C.3       1 <0>         0.3690
     12 H5         -0.9791    1.4025   -1.2279 H         1 <0>         0.0000
     13 H6         -0.9089   -0.2841   -1.6623 H         1 <0>         0.0000
     14 C2         -1.7030    0.0677    0.3405 C.3       1 <0>         0.3310
     15 H7         -1.4190    0.6315    1.2369 H         1 <0>         0.0000
     16 C3          1.3934   -0.8105   -0.3970 C.2       1 <0>        -0.0500
     17 H8          0.8108   -1.6768   -0.6939 H         1 <0>         0.1500
     18 C4          1.3289    1.5361   -0.0168 C.2       1 <0>        -0.0500
     19 H9          0.7190    2.4351   -0.0291 H         1 <0>         0.1500
     20 C5         -3.1260    0.4999   -0.0180 C.2       1 <0>         0.6590
     21 C6          2.6846   -0.9231   -0.0505 C.2       1 <0>         0.0910
     22 C7          2.6125    1.5888    0.3509 C.2       1 <0>        -0.1360
     23 H10         3.1116    2.5002    0.6503 H         1 <0>         0.1500
     24 C8          3.3976    0.3323    0.3439 C.2       1 <0>         0.5410
@<TRIPOS>BOND
     1    1    2 1
     2    1   20 1
     3    3    4 1
     4    3   21 1
     5    5   20 2
     6    6   24 2
     7    7   11 1
     8    7   16 1
     9    7   18 1
    10    8    9 1
    11    8   10 1
    12    8   14 1
    13   11   12 1
    14   11   13 1
    15   11   14 1
    16   14   15 1
    17   14   20 1
    18   16   17 1
    19   16   21 2
    20   18   19 1
    21   18   22 2
    22   21   24 1
    23   22   23 1
    24   22   24 1
