@<TRIPOS>MOLECULE
DB01250
   30    31     0     0     0
SMALL
USER_CHARGES

@<TRIPOS>ATOM
      1 C1         -1.6921   -0.1692   -0.3156 C.ar      1 <0>         0.1790
      2 C2         -2.5908    0.8990   -0.2154 C.ar      1 <0>        -0.1500
      3 N1         -0.3263    0.0837   -0.5384 N.2       1 <0>        -0.1790
      4 C3         -2.1841   -1.4763   -0.2418 C.ar      1 <0>        -0.1500
      5 C4         -3.9701    0.6844   -0.0283 C.ar      1 <0>        -0.1790
      6 N2          0.3253   -0.1184    0.5109 N.2       1 <0>        -0.1790
      7 C5         -3.5467   -1.7105   -0.0410 C.ar      1 <0>        -0.1500
      8 C6         -4.4310   -0.6326    0.0716 C.ar      1 <0>         0.0820
      9 C7         -4.8792    1.8785    0.0519 C.2       1 <0>         0.9790
     10 C8          1.6885    0.1478    0.2928 C.ar      1 <0>         0.1790
     11 O1         -5.7515   -0.8782    0.3185 O.3       1 <0>        -0.5320
     12 O2         -5.9193    1.8841   -0.6780 O.co2     1 <0>        -0.9000
     13 O3         -4.4951    2.8227    0.8130 O.co2     1 <0>        -0.9000
     14 C9          2.6044   -0.9082    0.2385 C.ar      1 <0>        -0.1500
     15 C10         2.1626    1.4601    0.1813 C.ar      1 <0>        -0.1500
     16 C11         3.9829   -0.6797    0.0592 C.ar      1 <0>        -0.1790
     17 C12         3.5227    1.7073   -0.0129 C.ar      1 <0>        -0.1500
     18 C13         4.4239    0.6404   -0.0807 C.ar      1 <0>         0.0820
     19 C14         4.9109   -1.8611    0.0289 C.2       1 <0>         0.9790
     20 O4          5.7436    0.9003   -0.3229 O.3       1 <0>        -0.5320
     21 O5          5.9533   -1.8198    0.7545 O.co2     1 <0>        -0.9000
     22 O6          4.5395   -2.8452   -0.6887 O.co2     1 <0>        -0.9000
     23 H1         -2.2131    1.9184   -0.2823 H         1 <0>         0.1500
     24 H2         -1.4995   -2.3151   -0.3319 H         1 <0>         0.1500
     25 H3         -3.8990   -2.7342    0.0346 H         1 <0>         0.1500
     26 H4         -5.9271   -1.8253    0.2206 H         1 <0>         0.4500
     27 H5          2.2413   -1.9306    0.3363 H         1 <0>         0.1500
     28 H6          1.4635    2.2906    0.2371 H         1 <0>         0.1500
     29 H7          3.8603    2.7340   -0.1194 H         1 <0>         0.1500
     30 H8          5.9024    1.8533   -0.2525 H         1 <0>         0.4500
@<TRIPOS>BOND
     1    1    2 ar
     2    1    3 1
     3    1    4 ar
     4    2    5 ar
     5    2   23 1
     6    3    6 2
     7    4    7 ar
     8    4   24 1
     9    5    8 ar
    10    5    9 1
    11    6   10 1
    12    7    8 ar
    13    7   25 1
    14    8   11 1
    15    9   12 2
    16    9   13 1
    17   10   14 ar
    18   10   15 ar
    19   11   26 1
    20   14   16 ar
    21   14   27 1
    22   15   17 ar
    23   15   28 1
    24   16   18 ar
    25   16   19 1
    26   17   18 ar
    27   17   29 1
    28   18   20 1
    29   19   21 2
    30   19   22 1
    31   20   30 1
