@<TRIPOS>MOLECULE
DB01077
   19    18     0     0     0
SMALL
USER_CHARGES

@<TRIPOS>ATOM
      1 P1          1.4445    0.8489    0.1225 P.3       1 <0>         1.2420
      2 P2         -1.6206    0.7272   -0.3087 P.3       1 <0>         1.2420
      3 O1         -0.3093   -0.4180    1.6000 O.3       1 <0>        -0.6800
      4 H1          0.5456   -0.7020    1.9842 H         1 <0>         0.4000
      5 O2          1.9611    0.8529   -1.3959 O.3       1 <0>        -0.7710
      6 H2          2.7035    1.4708   -1.5522 H         1 <0>         0.5000
      7 O3          2.5722   -0.0784    0.8076 O.3       1 <0>        -0.7710
      8 H3          2.6726   -0.9920    0.4745 H         1 <0>         0.5000
      9 O4         -2.1759    1.2003    1.1317 O.3       1 <0>        -0.7710
     10 H4         -1.6989    0.6883    1.8352 H         1 <0>         0.5000
     11 O5         -2.6913   -0.4181   -0.6675 O.3       1 <0>        -0.7710
     12 H5         -3.5628   -0.0577   -0.9289 H         1 <0>         0.5000
     13 O6          1.3711    2.2123    0.7297 O.2       1 <0>        -0.7000
     14 O7         -1.4884    1.7975   -1.3398 O.2       1 <0>        -0.7000
     15 C1         -0.0825   -0.1446    0.1817 C.3       1 <0>         0.2800
     16 C2          0.0631   -1.4848   -0.5341 C.3       1 <0>         0.0000
     17 H6          0.9312   -2.0411   -0.1708 H         1 <0>         0.0000
     18 H7          0.1724   -1.3372   -1.6115 H         1 <0>         0.0000
     19 H8         -0.8075   -2.1241   -0.3575 H         1 <0>         0.0000
@<TRIPOS>BOND
     1    1    5 1
     2    1    7 1
     3    1   13 2
     4    1   15 1
     5    2    9 1
     6    2   11 1
     7    2   14 2
     8    2   15 1
     9    3    4 1
    10    3   15 1
    11    5    6 1
    12    7    8 1
    13    9   10 1
    14   11   12 1
    15   15   16 1
    16   16   17 1
    17   16   18 1
    18   16   19 1
