@<TRIPOS>MOLECULE
DB01440
   14    13     0     0     0
SMALL
USER_CHARGES

@<TRIPOS>ATOM
      1 O1          2.5737    0.6695    0.0001 O.3       1 <0>        -0.6800
      2 O2         -3.3558   -0.6086   -0.0010 O.co2     1 <0>        -0.9000
      3 O3         -2.4123    1.4705    0.0009 O.co2     1 <0>        -0.9000
      4 C1          0.1771    0.4967    0.0001 C.3       1 <0>         0.0000
      5 C2         -1.0115   -0.4559    0.0001 C.3       1 <0>        -0.1060
      6 C3          1.4973   -0.2600    0.0000 C.3       1 <0>         0.2800
      7 C4         -2.3911    0.2095   -0.0005 C.2       1 <0>         0.9060
      8 H1          3.3953    0.1502   -0.0006 H         1 <0>         0.4000
      9 H2          0.1378    1.1585    0.8742 H         1 <0>         0.0000
     10 H3          0.1368    1.1594   -0.8738 H         1 <0>         0.0000
     11 H4         -0.9595   -1.1045    0.8839 H         1 <0>         0.0000
     12 H5         -0.9584   -1.1044   -0.8831 H         1 <0>         0.0000
     13 H6          1.5858   -0.8909    0.8908 H         1 <0>         0.0000
     14 H7          1.5848   -0.8900   -0.8912 H         1 <0>         0.0000
@<TRIPOS>BOND
     1    1    6 1
     2    1    8 1
     3    2    7 2
     4    3    7 1
     5    4    5 1
     6    4    6 1
     7    4    9 1
     8    4   10 1
     9    5    7 1
    10    5   11 1
    11    5   12 1
    12    6   13 1
    13    6   14 1
