@<TRIPOS>MOLECULE
DB01123
   27    29     0     0     0
SMALL
USER_CHARGES

@<TRIPOS>ATOM
      1 N1          0.0000    1.1723    0.0021 N.ar      1 <0>        -0.6200
      2 N2         -4.7855    1.2827   -0.0032 N.pl3     1 <0>        -0.9000
      3 H1         -4.7633    2.2926   -0.0033 H         1 <0>         0.4000
      4 H2         -5.6838    0.8193   -0.0054 H         1 <0>         0.4000
      5 N3          4.7857    1.2819   -0.0001 N.pl3     1 <0>        -0.9000
      6 H3          4.7638    2.2920    0.0058 H         1 <0>         0.4000
      7 H4          5.6843    0.8194   -0.0058 H         1 <0>         0.4000
      8 C1         -1.2136   -0.9095    0.0017 C.ar      1 <0>         0.0000
      9 C2          1.2135   -0.9089    0.0004 C.ar      1 <0>         0.0000
     10 C3         -1.1644    0.4952    0.0014 C.ar      1 <0>         0.3100
     11 C4          1.1646    0.4954    0.0012 C.ar      1 <0>         0.3100
     12 C5         -0.0001   -1.6067    0.0007 C.ar      1 <0>        -0.1500
     13 H5          0.0003   -2.6947    0.0006 H         1 <0>         0.1500
     14 C6         -2.4520   -1.5722    0.0020 C.ar      1 <0>        -0.1500
     15 H6         -2.5005   -2.6590    0.0028 H         1 <0>         0.1500
     16 C7          2.4511   -1.5722   -0.0014 C.ar      1 <0>        -0.1500
     17 H7          2.5006   -2.6585   -0.0025 H         1 <0>         0.1500
     18 C8         -2.3669    1.1954    0.0014 C.ar      1 <0>        -0.1500
     19 H8         -2.3263    2.2822    0.0005 H         1 <0>         0.1500
     20 C9          2.3672    1.1953    0.0009 C.ar      1 <0>        -0.1500
     21 H9          2.3267    2.2825    0.0020 H         1 <0>         0.1500
     22 C10        -3.6112    0.5507   -0.0003 C.ar      1 <0>         0.1000
     23 C11         3.6109    0.5509    0.0001 C.ar      1 <0>         0.1000
     24 C12        -3.6403   -0.8412    0.0020 C.ar      1 <0>        -0.1500
     25 H10        -4.5890   -1.3713    0.0017 H         1 <0>         0.1500
     26 C13         3.6398   -0.8423   -0.0016 C.ar      1 <0>        -0.1500
     27 H11         4.5881   -1.3711   -0.0034 H         1 <0>         0.1500
@<TRIPOS>BOND
     1    1   10 ar
     2    1   11 ar
     3    2    3 1
     4    2    4 1
     5    2   22 1
     6    5    6 1
     7    5    7 1
     8    5   23 1
     9    8   10 ar
    10    8   12 ar
    11    8   14 ar
    12    9   11 ar
    13    9   12 ar
    14    9   16 ar
    15   10   18 ar
    16   11   20 ar
    17   12   13 1
    18   14   15 1
    19   14   24 ar
    20   16   17 1
    21   16   26 ar
    22   18   19 1
    23   18   22 ar
    24   20   21 1
    25   20   23 ar
    26   22   24 ar
    27   23   26 ar
    28   24   25 1
    29   26   27 1
