@<TRIPOS>MOLECULE
DB01121
   23    23     0     0     0
SMALL
USER_CHARGES

@<TRIPOS>ATOM
      1 O1          1.9206    2.3361   -0.4578 O.2       1 <0>        -0.5700
      2 O2          3.9367    0.3923   -1.0189 O.2       1 <0>        -0.5700
      3 N1          1.9420    0.0833    0.1434 N.am      1 <0>        -0.4900
      4 H1          1.4099   -0.6288    0.6187 H         1 <0>         0.3700
      5 N2          3.3449   -1.6588   -0.3069 N.am      1 <0>        -0.8000
      6 H2          4.2015   -2.0277   -0.7018 H         1 <0>         0.3700
      7 H3          2.7202   -2.3052    0.1512 H         1 <0>         0.3700
      8 C1          0.1509    1.5155    0.9295 C.3       1 <0>         0.2040
      9 H4          0.3796    1.2532    1.9703 H         1 <0>         0.0000
     10 H5         -0.1560    2.5680    0.9301 H         1 <0>         0.0000
     11 C2         -0.9840    0.6746    0.3997 C.ar      1 <0>        -0.1440
     12 C3         -1.5897   -0.2982    1.2086 C.ar      1 <0>        -0.1500
     13 H6         -1.2574   -0.4536    2.2327 H         1 <0>         0.1500
     14 C4         -1.4570    0.8603   -0.9080 C.ar      1 <0>        -0.1500
     15 H7         -1.0130    1.6169   -1.5533 H         1 <0>         0.1500
     16 C5          1.4288    1.3727    0.1206 C.2       1 <0>         0.5690
     17 C6         -2.6368   -1.0778    0.7140 C.ar      1 <0>        -0.1500
     18 H8         -3.1015   -1.8279    1.3476 H         1 <0>         0.1500
     19 C7         -2.5024    0.0786   -1.4002 C.ar      1 <0>        -0.1500
     20 H9         -2.8612    0.2289   -2.4156 H         1 <0>         0.1500
     21 C8         -3.0912   -0.8907   -0.5900 C.ar      1 <0>        -0.1500
     22 H10        -3.9079   -1.4967   -0.9745 H         1 <0>         0.1500
     23 C9          3.1227   -0.3151   -0.4394 C.2       1 <0>         0.6900
@<TRIPOS>BOND
     1    1   16 2
     2    2   23 2
     3    3    4 1
     4    3   16 am
     5    3   23 am
     6    5    6 1
     7    5    7 1
     8    5   23 am
     9    8    9 1
    10    8   10 1
    11    8   11 1
    12    8   16 1
    13   11   12 ar
    14   11   14 ar
    15   12   13 1
    16   12   17 ar
    17   14   15 1
    18   14   19 ar
    19   17   18 1
    20   17   21 ar
    21   19   20 1
    22   19   21 ar
    23   21   22 1
