@<TRIPOS>MOLECULE
DB01438
   27    28     0     0     0
SMALL
USER_CHARGES

@<TRIPOS>ATOM
      1 N1         -3.4211    0.9943    0.2436 N.ar      1 <0>        -0.6200
      2 N2          0.1307   -0.0143    0.4808 N.2       1 <0>        -0.1790
      3 N3          0.7588   -0.2280   -0.5805 N.2       1 <0>        -0.1790
      4 N4         -1.5518    2.2618    0.7788 N.pl3     1 <0>        -0.9000
      5 N5         -5.3598   -0.1841   -0.2648 N.pl3     1 <0>        -0.9000
      6 C1         -1.2587   -0.0871    0.2510 C.ar      1 <0>         0.1790
      7 C2         -2.0803    1.0357    0.4185 C.ar      1 <0>         0.4100
      8 C3         -1.8748   -1.2921   -0.0924 C.ar      1 <0>        -0.1500
      9 C4         -3.2536   -1.3380   -0.2739 C.ar      1 <0>        -0.1500
     10 C5         -3.9931   -0.1775   -0.0981 C.ar      1 <0>         0.4100
     11 C6          2.1441   -0.1856   -0.3408 C.ar      1 <0>         0.1790
     12 C7          2.9027    0.8804   -0.8392 C.ar      1 <0>        -0.1500
     13 C8          2.7931   -1.2210    0.3437 C.ar      1 <0>        -0.1500
     14 C9          4.2842    0.9209   -0.6382 C.ar      1 <0>        -0.1500
     15 C10         4.1749   -1.1826    0.5444 C.ar      1 <0>        -0.1500
     16 C11         4.9190   -0.1097    0.0537 C.ar      1 <0>        -0.1500
     17 H1         -0.5602    2.3715    0.9263 H         1 <0>         0.4000
     18 H2         -2.1996    3.0277    0.8841 H         1 <0>         0.4000
     19 H3         -5.8736   -1.0120   -0.5171 H         1 <0>         0.4000
     20 H4         -5.8307    0.6972   -0.1190 H         1 <0>         0.4000
     21 H5         -1.2803   -2.1929   -0.2156 H         1 <0>         0.1500
     22 H6         -3.7356   -2.2713   -0.5441 H         1 <0>         0.1500
     23 H7          2.4155    1.6828   -1.3864 H         1 <0>         0.1500
     24 H8          2.2192   -2.0632    0.7221 H         1 <0>         0.1500
     25 H9          4.8653    1.7544   -1.0247 H         1 <0>         0.1500
     26 H10         4.6710   -1.9884    1.0792 H         1 <0>         0.1500
     27 H11         5.9945   -0.0789    0.2085 H         1 <0>         0.1500
@<TRIPOS>BOND
     1    1    7 ar
     2    1   10 ar
     3    2    3 2
     4    2    6 1
     5    3   11 1
     6    4    7 1
     7    4   17 1
     8    4   18 1
     9    5   10 1
    10    5   19 1
    11    5   20 1
    12    6    7 ar
    13    6    8 ar
    14    8    9 ar
    15    8   21 1
    16    9   10 ar
    17    9   22 1
    18   11   12 ar
    19   11   13 ar
    20   12   14 ar
    21   12   23 1
    22   13   15 ar
    23   13   24 1
    24   14   16 ar
    25   14   25 1
    26   15   16 ar
    27   15   26 1
    28   16   27 1
