@<TRIPOS>MOLECULE
DB01435
   26    27     0     0     0
SMALL
USER_CHARGES

@<TRIPOS>ATOM
      1 O1         -0.2257   -2.9828   -0.3064 O.2       1 <0>        -0.5700
      2 N1         -0.2034   -0.6136   -0.0197 N.am      1 <0>        -0.1570
      3 N2         -1.2714    0.2853    0.1431 N.pl3     1 <0>        -0.4890
      4 C1         -2.4482   -0.3973   -0.1130 C.2       1 <0>        -0.0380
      5 C2          1.1735   -0.2882   -0.0408 C.ar      1 <0>         0.1170
      6 C3         -0.7573   -1.8904   -0.1881 C.2       1 <0>         0.6160
      7 C4         -2.2320   -1.7087   -0.2951 C.2       1 <0>        -0.1360
      8 C5         -1.1394    1.6424    0.6200 C.3       1 <0>         0.3690
      9 C6         -3.7815    0.2675   -0.1381 C.3       1 <0>         0.1380
     10 C7          1.6404    0.9546   -0.4908 C.ar      1 <0>        -0.1500
     11 C8          2.1286   -1.2428    0.3429 C.ar      1 <0>        -0.1500
     12 C9          3.0089    1.2498   -0.5166 C.ar      1 <0>        -0.1500
     13 C10         3.4973   -0.9512    0.3197 C.ar      1 <0>        -0.1500
     14 C11         3.9367    0.2981   -0.1044 C.ar      1 <0>        -0.1500
     15 H1         -2.9267   -2.5032   -0.4932 H         1 <0>         0.1500
     16 H2         -0.2714    1.7666    1.2749 H         1 <0>         0.0000
     17 H3         -2.0087    1.9334    1.2196 H         1 <0>         0.0000
     18 H4         -1.0736    2.3425   -0.2182 H         1 <0>         0.0000
     19 H5         -3.7880    1.0860   -0.8646 H         1 <0>         0.0000
     20 H6         -4.0314    0.6725    0.8480 H         1 <0>         0.0000
     21 H7         -4.5744   -0.4336   -0.4199 H         1 <0>         0.0000
     22 H8          0.9597    1.7008   -0.8848 H         1 <0>         0.1500
     23 H9          1.8263   -2.2272    0.6930 H         1 <0>         0.1500
     24 H10         3.3476    2.2180   -0.8754 H         1 <0>         0.1500
     25 H11         4.2151   -1.7031    0.6341 H         1 <0>         0.1500
     26 H12         4.9990    0.5248   -0.1263 H         1 <0>         0.1500
@<TRIPOS>BOND
     1    1    6 2
     2    2    3 1
     3    2    5 1
     4    2    6 am
     5    3    4 1
     6    3    8 1
     7    4    7 2
     8    4    9 1
     9    5   10 ar
    10    5   11 ar
    11    6    7 1
    12    7   15 1
    13    8   16 1
    14    8   17 1
    15    8   18 1
    16    9   19 1
    17    9   20 1
    18    9   21 1
    19   10   12 ar
    20   10   22 1
    21   11   13 ar
    22   11   23 1
    23   12   14 ar
    24   12   24 1
    25   13   14 ar
    26   13   25 1
    27   14   26 1
