@<TRIPOS>MOLECULE
DB01235
   25    25     0     0     0
SMALL
USER_CHARGES

@<TRIPOS>ATOM
      1 O1         -3.1750    1.8670   -0.4169 O.3       1 <0>        -0.5320
      2 O2          4.2381   -0.1954   -0.4768 O.co2     1 <0>        -0.9000
      3 O3         -4.2550   -0.5858   -0.4330 O.3       1 <0>        -0.5320
      4 O4          3.8138    1.3746    1.1843 O.co2     1 <0>        -0.9000
      5 N1          2.0425   -0.6154   -1.2672 N.4       1 <0>        -0.8530
      6 C1          1.1912    0.0290    1.0026 C.3       1 <0>         0.1440
      7 C2          2.0577    0.4476   -0.1817 C.3       1 <0>         0.3970
      8 C3         -0.2665   -0.1335    0.6372 C.ar      1 <0>        -0.1440
      9 C4         -1.0380    0.9885    0.2912 C.ar      1 <0>        -0.1500
     10 C5         -0.8622   -1.4079    0.6368 C.ar      1 <0>        -0.1500
     11 C6         -2.3709    0.8183   -0.0641 C.ar      1 <0>         0.0820
     12 C7          3.5352    0.5861    0.2563 C.2       1 <0>         0.9060
     13 C8         -2.2032   -1.5675    0.2777 C.ar      1 <0>        -0.1500
     14 C9         -2.9438   -0.4501   -0.0743 C.ar      1 <0>         0.0820
     15 H1         -2.6666    2.6920   -0.3232 H         1 <0>         0.4500
     16 H2         -4.5276    0.3333   -0.6343 H         1 <0>         0.4500
     17 H3          1.7462   -0.2725   -2.1841 H         1 <0>         0.4500
     18 H4          1.5814   -1.4934   -1.0148 H         1 <0>         0.4500
     19 H5          3.0938   -0.8082   -1.3154 H         1 <0>         0.4500
     20 H6          1.5750   -0.9018    1.4417 H         1 <0>         0.0000
     21 H7          1.2571    0.7773    1.8041 H         1 <0>         0.0000
     22 H8          1.7244    1.3765   -0.6564 H         1 <0>         0.0000
     23 H9         -0.5934    1.9797    0.3073 H         1 <0>         0.1500
     24 H10        -0.2907   -2.2879    0.9256 H         1 <0>         0.1500
     25 H11        -2.6635   -2.5504    0.2774 H         1 <0>         0.1500
@<TRIPOS>BOND
     1    1   11 1
     2    1   15 1
     3    2   12 2
     4    3   14 1
     5    3   16 1
     6    4   12 1
     7    5    7 1
     8    5   17 1
     9    5   18 1
    10    5   19 1
    11    6    7 1
    12    6    8 1
    13    6   20 1
    14    6   21 1
    15    7   12 1
    16    7   22 1
    17    8    9 ar
    18    8   10 ar
    19    9   11 ar
    20    9   23 1
    21   10   13 ar
    22   10   24 1
    23   11   14 ar
    24   13   14 ar
    25   13   25 1
