@<TRIPOS>MOLECULE
DB01189
   12    11     0     0     0
SMALL
USER_CHARGES

@<TRIPOS>ATOM
      1 F1         -0.1281   -1.4294   -0.4512 F         1 <0>        -0.3400
      2 F2         -2.7304   -0.7209    0.2255 F         1 <0>        -0.3400
      3 F3         -1.9450    0.4745   -1.4243 F         1 <0>        -0.3400
      4 F4         -2.1028    1.3334    0.5780 F         1 <0>        -0.3400
      5 F5          2.7477    1.1543    0.1839 F         1 <0>        -0.3400
      6 F6          2.2033   -0.4253   -1.2102 F         1 <0>        -0.3400
      7 O1          0.5926    0.6771   -0.1090 O.3       1 <0>        -0.5600
      8 C1         -0.3984   -0.2855    0.2330 C.3       1 <0>         0.6200
      9 C2         -1.8005    0.2060   -0.1081 C.3       1 <0>         1.0200
     10 C3          1.8888    0.1260   -0.0151 C.3       1 <0>         0.9600
     11 H1         -0.3362   -0.5069    1.3040 H         1 <0>         0.0000
     12 H2          2.0089   -0.6033    0.7935 H         1 <0>         0.0000
@<TRIPOS>BOND
     1    1    8 1
     2    2    9 1
     3    3    9 1
     4    4    9 1
     5    5   10 1
     6    6   10 1
     7    7    8 1
     8    7   10 1
     9    8    9 1
    10    8   11 1
    11   10   12 1
