@<TRIPOS>MOLECULE
DB01178
   29    30     0     0     0
SMALL
USER_CHARGES

@<TRIPOS>ATOM
      1 Cl1         5.6305   -0.2608    0.2632 Cl        1 <0>        -0.1770
      2 S1         -1.0979   -1.6320    0.5519 S.o2      1 <0>         1.0900
      3 O1         -0.6444   -1.6251    1.9300 O.2       1 <0>        -0.6500
      4 O2         -0.9710   -2.8236   -0.2694 O.2       1 <0>        -0.6500
      5 O3         -3.1520    2.1438   -0.1933 O.2       1 <0>        -0.5700
      6 N1         -1.1033    1.0539   -0.1922 N.am      1 <0>        -0.6600
      7 C1         -0.3913   -0.2301   -0.3723 C.3       1 <0>         0.5490
      8 C2         -2.8261   -1.2039    0.5921 C.3       1 <0>         0.1050
      9 C3         -3.1867   -0.2227   -0.5042 C.3       1 <0>         0.0610
     10 C4          1.1175   -0.2325   -0.1817 C.ar      1 <0>        -0.1440
     11 C5         -2.4952    1.1087   -0.2793 C.2       1 <0>         0.5690
     12 C6         -0.3635    2.2914    0.0194 C.3       1 <0>         0.3000
     13 C7          1.9519   -0.4816   -1.2867 C.ar      1 <0>        -0.1500
     14 C8          1.7239    0.0153    1.0628 C.ar      1 <0>        -0.1500
     15 C9          3.3433   -0.4892   -1.1506 C.ar      1 <0>        -0.1500
     16 C10         3.1147    0.0064    1.2010 C.ar      1 <0>        -0.1500
     17 C11         3.9179   -0.2475    0.0936 C.ar      1 <0>         0.1770
     18 H1         -0.5942   -0.4982   -1.4191 H         1 <0>         0.0000
     19 H2         -3.3985   -2.1302    0.4959 H         1 <0>         0.0000
     20 H3         -3.0286   -0.7683    1.5770 H         1 <0>         0.0000
     21 H4         -2.9248   -0.6028   -1.4974 H         1 <0>         0.0000
     22 H5         -4.2693   -0.0499   -0.4952 H         1 <0>         0.0000
     23 H6         -1.0204    3.1652   -0.0165 H         1 <0>         0.0000
     24 H7          0.3905    2.4008   -0.7653 H         1 <0>         0.0000
     25 H8          0.1082    2.2671    1.0042 H         1 <0>         0.0000
     26 H9          1.5275   -0.6753   -2.2705 H         1 <0>         0.1500
     27 H10         1.1168    0.2140    1.9461 H         1 <0>         0.1500
     28 H11         3.9669   -0.6882   -2.0188 H         1 <0>         0.1500
     29 H12         3.5575    0.1951    2.1752 H         1 <0>         0.1500
@<TRIPOS>BOND
     1    1   17 1
     2    2    3 2
     3    2    4 2
     4    2    7 1
     5    2    8 1
     6    5   11 2
     7    6    7 1
     8    6   11 am
     9    6   12 1
    10    7   10 1
    11    7   18 1
    12    8    9 1
    13    8   19 1
    14    8   20 1
    15    9   11 1
    16    9   21 1
    17    9   22 1
    18   10   13 ar
    19   10   14 ar
    20   12   23 1
    21   12   24 1
    22   12   25 1
    23   13   15 ar
    24   13   26 1
    25   14   16 ar
    26   14   27 1
    27   15   17 ar
    28   15   28 1
    29   16   17 ar
    30   16   29 1
