@<TRIPOS>MOLECULE
DB01144
   22    22     0     0     0
SMALL
USER_CHARGES

@<TRIPOS>ATOM
      1 Cl1         2.8481   -2.0863    0.6859 Cl        1 <0>        -0.1770
      2 Cl2         0.2856   -3.9135    0.1643 Cl        1 <0>        -0.1770
      3 S1          2.4927    1.1524    0.5790 S.o2      1 <0>         1.4470
      4 S2         -2.7598    0.4659   -0.6734 S.o2      1 <0>         1.4470
      5 O1          2.0439    2.4882    0.2453 O.2       1 <0>        -0.6500
      6 O2          3.0219    0.8418    1.8861 O.2       1 <0>        -0.6500
      7 O3         -3.6359   -0.5864   -1.1376 O.2       1 <0>        -0.6500
      8 O4         -2.5198    1.6660   -1.4419 O.2       1 <0>        -0.6500
      9 N1          3.6318    0.7543   -0.6030 N.pl3     1 <0>        -0.9780
     10 H1          3.7333    1.4940   -1.3024 H         1 <0>         0.4200
     11 H2          3.5524   -0.1792   -1.0114 H         1 <0>         0.4200
     12 N2         -3.3155    0.9382    0.8458 N.pl3     1 <0>        -0.9780
     13 H3         -4.1550    0.4253    1.1306 H         1 <0>         0.4200
     14 H4         -3.4061    1.9530    0.9312 H         1 <0>         0.4200
     15 C1          1.1536    0.0313    0.2590 C.ar      1 <0>        -0.0090
     16 C2         -1.1923   -0.2468   -0.2642 C.ar      1 <0>        -0.0090
     17 C3         -0.0967    0.5901   -0.0465 C.ar      1 <0>        -0.1500
     18 H5         -0.2256    1.6702   -0.1051 H         1 <0>         0.1500
     19 C4          1.3120   -1.3617    0.3381 C.ar      1 <0>         0.1770
     20 C5         -1.0538   -1.6311   -0.2001 C.ar      1 <0>        -0.1500
     21 H6         -1.9084   -2.2809   -0.3826 H         1 <0>         0.1500
     22 C6          0.1935   -2.1849    0.1030 C.ar      1 <0>         0.1770
@<TRIPOS>BOND
     1    1   19 1
     2    2   22 1
     3    3    5 2
     4    3    6 2
     5    3    9 1
     6    3   15 1
     7    4    7 2
     8    4    8 2
     9    4   12 1
    10    4   16 1
    11    9   10 1
    12    9   11 1
    13   12   13 1
    14   12   14 1
    15   15   17 ar
    16   15   19 ar
    17   16   17 ar
    18   16   20 ar
    19   17   18 1
    20   19   22 ar
    21   20   21 1
    22   20   22 ar
