@<TRIPOS>MOLECULE
DB01375
   13    12     0     0     0
SMALL
USER_CHARGES

@<TRIPOS>ATOM
      1 Al1        -3.0559   -0.0453   -0.1364 Al        1 <0>         0.7530
      2 O1         -1.3601    0.6290    0.1278 O.3       1 <0>        -0.6080
      3 O2         -0.3010   -1.2780   -0.5581 O.2       1 <0>        -0.5700
      4 N1          2.2005   -0.2538   -0.0731 N.4       1 <0>        -0.8530
      5 C1          1.0032    0.6086    0.1883 C.3       1 <0>         0.5640
      6 C2         -0.2750   -0.1327   -0.1262 C.2       1 <0>         0.6590
      7 H1         -4.3296    1.0698   -0.4292 H         1 <0>        -0.1480
      8 H2         -3.4741   -1.5153    0.6482 H         1 <0>        -0.1480
      9 H3          3.0838    0.2316    0.1226 H         1 <0>         0.4500
     10 H4          2.2079   -0.5681   -1.0539 H         1 <0>         0.4500
     11 H5          2.1604   -1.1094    0.4987 H         1 <0>         0.4500
     12 H6          1.1022    1.4857   -0.4553 H         1 <0>         0.0000
     13 H7          1.0375    0.8778    1.2466 H         1 <0>         0.0000
@<TRIPOS>BOND
     1    1    2 1
     2    1    7 1
     3    1    8 1
     4    2    6 1
     5    3    6 2
     6    4    5 1
     7    4    9 1
     8    4   10 1
     9    4   11 1
    10    5    6 1
    11    5   12 1
    12    5   13 1
