@<TRIPOS>MOLECULE
DB01423
   27    27     0     0     0
SMALL
USER_CHARGES

@<TRIPOS>ATOM
      1 S1          0.4493   -0.0139   -0.5964 S.3       1 <0>        -0.3710
      2 S2          3.1765   -1.7766   -0.5391 S.3       1 <0>        -0.0800
      3 O1         -1.7560   -0.1989    2.1712 O.2       1 <0>        -0.5700
      4 O2          2.0400    1.9648    0.0021 O.2       1 <0>        -0.5700
      5 O3         -5.8464   -2.0989   -0.4303 O.co2     1 <0>        -0.9000
      6 O4         -4.4963   -0.8306   -1.7873 O.co2     1 <0>        -0.9000
      7 N1         -2.7377   -0.2909    0.1017 N.am      1 <0>        -0.7300
      8 C1         -0.6758    1.0218    0.4026 C.3       1 <0>         0.2910
      9 C2         -1.7707    0.1280    0.9832 C.2       1 <0>         0.5690
     10 C3         -1.2283    2.1829   -0.4164 C.3       1 <0>         0.0000
     11 C4         -3.8732   -1.1313    0.4775 C.3       1 <0>         0.1940
     12 C5          1.9919    0.7587   -0.2217 C.2       1 <0>         0.7960
     13 C6          3.1756   -0.0948   -0.1990 C.2       1 <0>        -0.0450
     14 C7          4.4598    0.3364    0.1019 C.2       1 <0>        -0.1500
     15 C8         -4.8412   -1.3836   -0.6972 C.2       1 <0>         0.9060
     16 C9          5.4261   -0.7088    0.0574 C.2       1 <0>        -0.1500
     17 C10         4.8585   -1.9141   -0.2808 C.2       1 <0>        -0.1100
     18 H1         -2.7329   -0.0477   -0.8892 H         1 <0>         0.3700
     19 H2         -0.1309    1.4271    1.2631 H         1 <0>         0.0000
     20 H3         -1.7195    1.8538   -1.3382 H         1 <0>         0.0000
     21 H4         -0.4362    2.8872   -0.6933 H         1 <0>         0.0000
     22 H5         -1.9730    2.7386    0.1653 H         1 <0>         0.0000
     23 H6         -4.4049   -0.6382    1.2977 H         1 <0>         0.0000
     24 H7         -3.4776   -2.0856    0.8420 H         1 <0>         0.0000
     25 H8          4.6926    1.3668    0.3483 H         1 <0>         0.1500
     26 H9          6.4806   -0.5814    0.2636 H         1 <0>         0.1500
     27 H10         5.3497   -2.8711   -0.3885 H         1 <0>         0.1500
@<TRIPOS>BOND
     1    1    8 1
     2    1   12 1
     3    2   13 1
     4    2   17 1
     5    3    9 2
     6    4   12 2
     7    5   15 2
     8    6   15 1
     9    7    9 am
    10    7   11 1
    11    7   18 1
    12    8    9 1
    13    8   10 1
    14    8   19 1
    15   10   20 1
    16   10   21 1
    17   10   22 1
    18   11   15 1
    19   11   23 1
    20   11   24 1
    21   12   13 1
    22   13   14 2
    23   14   16 1
    24   14   25 1
    25   16   17 2
    26   16   26 1
    27   17   27 1
