@<TRIPOS>MOLECULE
DB01097
   28    29     0     0     0
SMALL
USER_CHARGES

@<TRIPOS>ATOM
      1 F1          5.5053   -1.5468   -0.7028 F         1 <0>        -0.3400
      2 F2          5.8997    0.5773   -0.4688 F         1 <0>        -0.3400
      3 F3          5.6044   -0.6723    1.2862 F         1 <0>        -0.3400
      4 O1         -5.0893    0.7786   -0.0062 O.3       1 <0>        -0.0190
      5 O2         -1.5001   -1.3961   -0.0947 O.2       1 <0>        -0.5700
      6 N1         -0.4817    0.6899   -0.0049 N.am      1 <0>        -0.5470
      7 H1         -0.6652    1.6819    0.0537 H         1 <0>         0.3700
      8 N2         -4.5464    2.0455   -0.1043 N.2       1 <0>        -0.4100
      9 C1          0.8901    0.3422   -0.0136 C.ar      1 <0>         0.1170
     10 C2          3.6709   -0.1709   -0.0134 C.ar      1 <0>        -0.1440
     11 C3         -2.8639    0.4936   -0.0573 C.2       1 <0>        -0.0860
     12 C4          1.8135    1.3925    0.0816 C.ar      1 <0>        -0.1500
     13 H2          1.4797    2.4249    0.1603 H         1 <0>         0.1500
     14 C5          1.3708   -0.9643   -0.1091 C.ar      1 <0>        -0.1500
     15 H3          0.7047   -1.8173   -0.1883 H         1 <0>         0.1500
     16 C6          3.1898    1.1397    0.0875 C.ar      1 <0>        -0.1500
     17 H4          3.8827    1.9751    0.1710 H         1 <0>         0.1500
     18 C7          2.7485   -1.2201   -0.1057 C.ar      1 <0>        -0.1500
     19 H5          3.0927   -2.2506   -0.1770 H         1 <0>         0.1500
     20 C8         -1.5672   -0.1723   -0.0584 C.2       1 <0>         0.7160
     21 C9         -4.0899   -0.1419    0.0202 C.2       1 <0>        -0.0400
     22 C10         5.1507   -0.4495    0.0224 C.3       1 <0>         1.1640
     23 C11        -3.2257    1.8591   -0.1372 C.2       1 <0>         0.1390
     24 H6         -2.5991    2.7344   -0.2228 H         1 <0>         0.1500
     25 C12        -4.5108   -1.5540    0.1245 C.3       1 <0>         0.1800
     26 H7         -4.0547   -2.0285    0.9983 H         1 <0>         0.0000
     27 H8         -4.2121   -2.1104   -0.7683 H         1 <0>         0.0000
     28 H9         -5.5972   -1.6396    0.2270 H         1 <0>         0.0000
@<TRIPOS>BOND
     1    1   22 1
     2    2   22 1
     3    3   22 1
     4    4    8 1
     5    4   21 1
     6    5   20 2
     7    6    7 1
     8    6    9 1
     9    6   20 am
    10    8   23 2
    11    9   12 ar
    12    9   14 ar
    13   10   16 ar
    14   10   18 ar
    15   10   22 1
    16   11   20 1
    17   11   21 2
    18   11   23 1
    19   12   13 1
    20   12   16 ar
    21   14   15 1
    22   14   18 ar
    23   16   17 1
    24   18   19 1
    25   21   25 1
    26   23   24 1
    27   25   26 1
    28   25   27 1
    29   25   28 1
