@<TRIPOS>MOLECULE
DB01021
   28    29     0     0     0
SMALL
USER_CHARGES

@<TRIPOS>ATOM
      1 Cl1        -4.6688   -2.1226   -0.4038 Cl        1 <0>        -0.2900
      2 Cl2        -5.6145    0.5854    0.0825 Cl        1 <0>        -0.2900
      3 Cl3         2.8811   -2.7366   -0.2190 Cl        1 <0>        -0.1770
      4 S1         -1.2063    2.0035   -0.1806 S.o2      1 <0>         1.4470
      5 S2          3.9519    0.3700   -0.4386 S.o2      1 <0>         1.4470
      6 O1         -1.5059    2.3819   -1.5434 O.2       1 <0>        -0.6500
      7 O2         -0.7347    2.9526    0.8036 O.2       1 <0>        -0.6500
      8 O3          4.5360   -0.3936   -1.5162 O.2       1 <0>        -0.6500
      9 O4          4.0684    1.8108   -0.3806 O.2       1 <0>        -0.6500
     10 N1         -2.5480    1.2347    0.4888 N.pl3     1 <0>        -0.9140
     11 H1         -2.4801    1.1576    1.5049 H         1 <0>         0.4200
     12 N2         -1.8554   -0.9581   -0.0856 N.pl3     1 <0>        -0.8690
     13 H2         -2.1124   -1.9352    0.0238 H         1 <0>         0.4000
     14 N3          4.5738   -0.1994    1.0207 N.pl3     1 <0>        -0.9780
     15 H3          5.2281   -0.9765    0.8864 H         1 <0>         0.4200
     16 H4          4.9464    0.5541    1.6033 H         1 <0>         0.4200
     17 C1         -2.9303    0.0114   -0.2232 C.3       1 <0>         0.7250
     18 H5         -3.0752    0.2343   -1.2880 H         1 <0>         0.0000
     19 C2         -0.0486    0.6811   -0.2459 C.ar      1 <0>        -0.0090
     20 C3         -0.5165   -0.6312   -0.1589 C.ar      1 <0>         0.1000
     21 C4          1.3104    0.9877   -0.3177 C.ar      1 <0>        -0.1500
     22 H6          1.6276    2.0282   -0.3717 H         1 <0>         0.1500
     23 C5          2.2438   -0.0517   -0.3158 C.ar      1 <0>        -0.0090
     24 C6         -4.2581   -0.5476    0.3441 C.3       1 <0>         0.5800
     25 H7         -4.1813   -0.7180    1.4229 H         1 <0>         0.0000
     26 C7          0.4415   -1.6537   -0.1581 C.ar      1 <0>        -0.1500
     27 H8          0.1129   -2.6906   -0.0960 H         1 <0>         0.1500
     28 C8          1.8143   -1.3786   -0.2378 C.ar      1 <0>         0.1770
@<TRIPOS>BOND
     1    1   24 1
     2    2   24 1
     3    3   28 1
     4    4    6 2
     5    4    7 2
     6    4   10 1
     7    4   19 1
     8    5    8 2
     9    5    9 2
    10    5   14 1
    11    5   23 1
    12   10   11 1
    13   10   17 1
    14   12   13 1
    15   12   17 1
    16   12   20 1
    17   14   15 1
    18   14   16 1
    19   17   18 1
    20   17   24 1
    21   19   20 ar
    22   19   21 ar
    23   20   26 ar
    24   21   22 1
    25   21   23 ar
    26   23   28 ar
    27   24   25 1
    28   26   27 1
    29   26   28 ar
