@<TRIPOS>MOLECULE
DB01626
   26    26     0     0     0
SMALL
USER_CHARGES

@<TRIPOS>ATOM
      1 N1          1.2963   -0.1094   -0.0995 N.4       1 <0>        -0.9590
      2 C1          0.1861   -0.3731   -1.0989 C.3       1 <0>         0.6460
      3 C2         -1.1892   -0.0576   -0.5738 C.ar      1 <0>        -0.1440
      4 C3          2.6557   -0.1501   -0.7606 C.3       1 <0>         0.7030
      5 C4          1.2163   -1.0119    1.1054 C.3       1 <0>         0.5030
      6 C5         -2.0711   -1.0900   -0.2198 C.ar      1 <0>        -0.1500
      7 C6         -1.6002    1.2745   -0.4100 C.ar      1 <0>        -0.1500
      8 C7         -3.3355   -0.7949    0.2917 C.ar      1 <0>        -0.1500
      9 C8         -2.8667    1.5649    0.0997 C.ar      1 <0>        -0.1500
     10 C9         -3.7320    0.5318    0.4517 C.ar      1 <0>        -0.1500
     11 C10         3.6312    0.5421    0.0814 C.1       1 <0>        -0.2000
     12 C11         4.4273    1.1173    0.7735 C.1       1 <0>        -0.1770
     13 H1          1.1655    0.8520    0.2381 H         1 <0>         0.4500
     14 H2          0.2731   -1.4196   -1.4133 H         1 <0>         0.0000
     15 H3          0.3790    0.2557   -1.9760 H         1 <0>         0.0000
     16 H4          2.5714    0.3625   -1.7250 H         1 <0>         0.0000
     17 H5          2.9131   -1.1996   -0.9343 H         1 <0>         0.0000
     18 H6          1.2949   -2.0504    0.7696 H         1 <0>         0.0000
     19 H7          0.2647   -0.8345    1.6123 H         1 <0>         0.0000
     20 H8          2.0302   -0.7625    1.7890 H         1 <0>         0.0000
     21 H9         -1.7857   -2.1331   -0.3364 H         1 <0>         0.1500
     22 H10        -0.9464    2.1000   -0.6848 H         1 <0>         0.1500
     23 H11        -4.0143   -1.5996    0.5644 H         1 <0>         0.1500
     24 H12        -3.1816    2.5991    0.2202 H         1 <0>         0.1500
     25 H13        -4.7174    0.7598    0.8488 H         1 <0>         0.1500
     26 H14         5.1356    1.6265    1.3866 H         1 <0>         0.1770
@<TRIPOS>BOND
     1    1    2 1
     2    1    4 1
     3    1    5 1
     4    1   13 1
     5    2    3 1
     6    2   14 1
     7    2   15 1
     8    3    6 ar
     9    3    7 ar
    10    4   11 1
    11    4   16 1
    12    4   17 1
    13    5   18 1
    14    5   19 1
    15    5   20 1
    16    6    8 ar
    17    6   21 1
    18    7    9 ar
    19    7   22 1
    20    8   10 ar
    21    8   23 1
    22    9   10 ar
    23    9   24 1
    24   10   25 1
    25   11   12 3
    26   12   26 1
