@<TRIPOS>MOLECULE
DB01202
   26    26     0     0     0
SMALL
USER_CHARGES

@<TRIPOS>ATOM
      1 O1          1.3434   -1.5911   -1.6358 O.2       1 <0>        -0.5700
      2 O2         -1.8188   -1.2451    1.7481 O.2       1 <0>        -0.5700
      3 N1          0.5798    0.0894   -0.2145 N.am      1 <0>        -0.6600
      4 N2         -0.5142   -2.5421    0.4218 N.am      1 <0>        -0.8000
      5 C1          1.1586    1.1416    0.5905 C.3       1 <0>         0.3000
      6 C2         -0.8572   -0.2175   -0.2616 C.3       1 <0>         0.3610
      7 C3          2.6337    0.7866    0.6319 C.3       1 <0>         0.0000
      8 C4          2.8726    0.0426   -0.6765 C.3       1 <0>         0.0610
      9 C5          1.5408   -0.6146   -0.9285 C.2       1 <0>         0.5690
     10 C6         -1.7471    1.0096   -0.0297 C.3       1 <0>         0.0000
     11 C7         -1.1159   -1.3515    0.7475 C.2       1 <0>         0.5690
     12 C8         -3.2012    0.7572   -0.4131 C.3       1 <0>         0.0000
     13 H1         -0.6513   -3.3506    1.0129 H         1 <0>         0.3700
     14 H2          0.0814   -2.6272   -0.4027 H         1 <0>         0.3700
     15 H3          0.9866    2.1000    0.0888 H         1 <0>         0.0000
     16 H4          0.7167    1.1555    1.5904 H         1 <0>         0.0000
     17 H5         -1.0634   -0.6298   -1.2590 H         1 <0>         0.0000
     18 H6          3.2782    1.6622    0.7506 H         1 <0>         0.0000
     19 H7          2.8271    0.1109    1.4749 H         1 <0>         0.0000
     20 H8          3.6681   -0.6990   -0.5835 H         1 <0>         0.0000
     21 H9          3.0910    0.7312   -1.4992 H         1 <0>         0.0000
     22 H10        -1.7050    1.3316    1.0173 H         1 <0>         0.0000
     23 H11        -1.3810    1.8483   -0.6347 H         1 <0>         0.0000
     24 H12        -3.6449   -0.0387    0.1911 H         1 <0>         0.0000
     25 H13        -3.2844    0.4755   -1.4675 H         1 <0>         0.0000
     26 H14        -3.7935    1.6647   -0.2595 H         1 <0>         0.0000
@<TRIPOS>BOND
     1    1    9 2
     2    2   11 2
     3    3    5 1
     4    3    6 1
     5    3    9 am
     6    4   11 am
     7    4   13 1
     8    4   14 1
     9    5    7 1
    10    5   15 1
    11    5   16 1
    12    6   10 1
    13    6   11 1
    14    6   17 1
    15    7    8 1
    16    7   18 1
    17    7   19 1
    18    8    9 1
    19    8   20 1
    20    8   21 1
    21   10   12 1
    22   10   22 1
    23   10   23 1
    24   12   24 1
    25   12   25 1
    26   12   26 1
