@<TRIPOS>MOLECULE
DB01015
   28    29     0     0     0
SMALL
USER_CHARGES

@<TRIPOS>ATOM
      1 S1         -0.0316    2.2399   -1.0174 S.o2      1 <0>         1.4470
      2 O1          3.5175    0.0655    1.5550 O.3       1 <0>        -0.0190
      3 O2         -0.7149    3.5151   -0.9329 O.2       1 <0>        -0.6500
      4 O3          0.6105    1.8172   -2.2443 O.2       1 <0>        -0.6500
      5 N1          1.0674    2.1803    0.2414 N.pl3     1 <0>        -0.7030
      6 H1          1.0315    2.9379    0.9238 H         1 <0>         0.4200
      7 N2          2.7143    1.1919    1.6019 N.2       1 <0>        -0.4100
      8 N3         -4.0413   -1.8774    0.5451 N.pl3     1 <0>        -0.9000
      9 H2         -4.1297   -2.7395    0.0246 H         1 <0>         0.4000
     10 H3         -4.6532   -1.7269    1.3359 H         1 <0>         0.4000
     11 C1         -1.2086    0.9986   -0.5514 C.ar      1 <0>        -0.0090
     12 C2         -2.0410    1.2308    0.5457 C.ar      1 <0>        -0.1500
     13 H4         -1.9720    2.1525    1.1181 H         1 <0>         0.1500
     14 C3         -1.3238   -0.1757   -1.2953 C.ar      1 <0>        -0.1500
     15 H5         -0.6958   -0.3573   -2.1641 H         1 <0>         0.1500
     16 C4          1.9804    1.1639    0.4852 C.2       1 <0>         0.4340
     17 C5         -3.1053   -0.9254    0.1828 C.ar      1 <0>         0.1000
     18 C6         -2.9826    0.2647    0.9083 C.ar      1 <0>        -0.1500
     19 H6         -3.6272    0.4494    1.7642 H         1 <0>         0.1500
     20 C7         -2.2692   -1.1343   -0.9203 C.ar      1 <0>        -0.1500
     21 H7         -2.3530   -2.0480   -1.5019 H         1 <0>         0.1500
     22 C8          2.2920    0.0372   -0.3040 C.2       1 <0>        -0.1500
     23 H8          1.8898   -0.2581   -1.2603 H         1 <0>         0.1500
     24 C9          3.2634   -0.6210    0.4096 C.2       1 <0>        -0.0400
     25 C10         4.0433   -1.8520    0.1845 C.3       1 <0>         0.1800
     26 H9          3.3765   -2.7159    0.1010 H         1 <0>         0.0000
     27 H10         4.7408   -2.0401    1.0059 H         1 <0>         0.0000
     28 H11         4.6219   -1.7731   -0.7412 H         1 <0>         0.0000
@<TRIPOS>BOND
     1    1    3 2
     2    1    4 2
     3    1    5 1
     4    1   11 1
     5    2    7 1
     6    2   24 1
     7    5    6 1
     8    5   16 1
     9    7   16 2
    10    8    9 1
    11    8   10 1
    12    8   17 1
    13   11   12 ar
    14   11   14 ar
    15   12   13 1
    16   12   18 ar
    17   14   15 1
    18   14   20 ar
    19   16   22 1
    20   17   18 ar
    21   17   20 ar
    22   18   19 1
    23   20   21 1
    24   22   23 1
    25   22   24 2
    26   24   25 1
    27   25   26 1
    28   25   27 1
    29   25   28 1
