@<TRIPOS>MOLECULE
DB01427
   23    24     0     0     0
SMALL
USER_CHARGES

@<TRIPOS>ATOM
      1 O1          4.1257   -1.0068   -0.3244 O.2       1 <0>        -0.5700
      2 N1          1.9581   -1.6808   -0.5744 N.am      1 <0>        -0.5390
      3 N2          3.3804    1.5166    0.5650 N.pl3     1 <0>        -0.9000
      4 N3         -4.0804    0.3771    0.0825 N.ar      1 <0>        -0.6200
      5 C1          0.1451   -0.2517   -0.0756 C.2       1 <0>        -0.0280
      6 C2         -1.3118   -0.0473   -0.0228 C.ar      1 <0>         0.0280
      7 C3          1.1058    0.7755    0.2919 C.2       1 <0>        -0.1500
      8 C4          0.6105   -1.4416   -0.4964 C.2       1 <0>        -0.0410
      9 C5          2.4331    0.5893    0.2315 C.2       1 <0>         0.1140
     10 C6          2.9244   -0.7581   -0.2430 C.2       1 <0>         0.6160
     11 C7         -1.9240    0.8545   -0.8950 C.ar      1 <0>        -0.1500
     12 C8         -2.0995   -0.7316    0.9069 C.ar      1 <0>        -0.1500
     13 C9         -3.2965    1.0274   -0.8044 C.ar      1 <0>         0.1600
     14 C10        -3.4628   -0.4869    0.9171 C.ar      1 <0>         0.1600
     15 H1          2.2915   -2.5829   -0.8939 H         1 <0>         0.3700
     16 H2          3.1248    2.4384    0.8914 H         1 <0>         0.4000
     17 H3          4.3554    1.2451    0.4725 H         1 <0>         0.4000
     18 H4          0.7071    1.7273    0.6325 H         1 <0>         0.1500
     19 H5         -0.0344   -2.2618   -0.7988 H         1 <0>         0.1500
     20 H6         -1.3530    1.4093   -1.6323 H         1 <0>         0.1500
     21 H7         -1.6666   -1.4333    1.6124 H         1 <0>         0.1500
     22 H8         -3.8165    1.7157   -1.4630 H         1 <0>         0.1500
     23 H9         -4.1163   -0.9935    1.6204 H         1 <0>         0.1500
@<TRIPOS>BOND
     1    1   10 2
     2    2    8 1
     3    2   10 am
     4    2   15 1
     5    3    9 1
     6    3   16 1
     7    3   17 1
     8    4   13 ar
     9    4   14 ar
    10    5    6 1
    11    5    7 1
    12    5    8 2
    13    6   11 ar
    14    6   12 ar
    15    7    9 2
    16    7   18 1
    17    8   19 1
    18    9   10 1
    19   11   13 ar
    20   11   20 1
    21   12   14 ar
    22   12   21 1
    23   13   22 1
    24   14   23 1
