@<TRIPOS>MOLECULE
DB01031
   25    25     0     0     0
SMALL
USER_CHARGES

@<TRIPOS>ATOM
      1 O1         -1.7024    0.0755   -0.6474 O.3       1 <0>        -0.4300
      2 O2         -2.7000    0.1204    1.4293 O.2       1 <0>        -0.5700
      3 N1         -3.8855    0.4125   -0.4853 N.am      1 <0>        -0.8000
      4 H1         -4.7573    0.5259    0.0111 H         1 <0>         0.3700
      5 H2         -3.8626    0.4626   -1.4936 H         1 <0>         0.3700
      6 C1         -0.3708   -0.1973   -0.1316 C.3       1 <0>         0.4800
      7 C2          0.5450   -0.2075   -1.3721 C.3       1 <0>         0.0000
      8 H3          0.2162   -0.9674   -2.0956 H         1 <0>         0.0000
      9 H4          0.4300    0.7491   -1.9006 H         1 <0>         0.0000
     10 C3          0.0812    0.9149    0.8459 C.3       1 <0>         0.0000
     11 H5         -0.5158    1.8226    0.6960 H         1 <0>         0.0000
     12 H6         -0.1114    0.6041    1.8817 H         1 <0>         0.0000
     13 C4          2.0265   -0.4192   -1.0482 C.3       1 <0>         0.0000
     14 H7          2.2688   -1.4888   -1.0756 H         1 <0>         0.0000
     15 H8          2.6249    0.0446   -1.8427 H         1 <0>         0.0000
     16 C5          1.5590    1.3088    0.7303 C.3       1 <0>         0.0000
     17 H9          1.6581    2.1195   -0.0038 H         1 <0>         0.0000
     18 H10         1.9042    1.7173    1.6874 H         1 <0>         0.0000
     19 C6          2.4447    0.1479    0.3071 C.3       1 <0>         0.0000
     20 H11         3.4925    0.4663    0.2642 H         1 <0>         0.0000
     21 H12         2.3950   -0.6406    1.0687 H         1 <0>         0.0000
     22 C7         -0.3466   -1.5406    0.4969 C.1       1 <0>        -0.2000
     23 C8         -2.7419    0.1905    0.2108 C.2       1 <0>         0.7800
     24 C9         -0.3306   -2.6288    1.0059 C.1       1 <0>        -0.1770
     25 H13        -0.3213   -3.5924    1.4613 H         1 <0>         0.1770
@<TRIPOS>BOND
     1    1    6 1
     2    1   23 1
     3    2   23 2
     4    3    4 1
     5    3    5 1
     6    3   23 am
     7    6    7 1
     8    6   10 1
     9    6   22 1
    10    7    8 1
    11    7    9 1
    12    7   13 1
    13   10   11 1
    14   10   12 1
    15   10   16 1
    16   13   14 1
    17   13   15 1
    18   13   19 1
    19   16   17 1
    20   16   18 1
    21   16   19 1
    22   19   20 1
    23   19   21 1
    24   22   24 3
    25   24   25 1
