@<TRIPOS>MOLECULE
DB01576
   24    24     0     0     0
SMALL
USER_CHARGES

@<TRIPOS>ATOM
      1 N1         -3.0407    0.5284   -0.2089 N.4       1 <0>        -0.8530
      2 C1         -1.6566    0.2372    0.2850 C.3       1 <0>         0.5030
      3 C2         -0.6969    0.2502   -0.9145 C.3       1 <0>         0.1440
      4 C3          0.7550    0.1733   -0.5117 C.ar      1 <0>        -0.1440
      5 C4         -1.7026   -1.1020    1.0131 C.3       1 <0>         0.0000
      6 C5          1.4732   -1.0219   -0.6572 C.ar      1 <0>        -0.1500
      7 C6          1.4049    1.2950    0.0242 C.ar      1 <0>        -0.1500
      8 C7          2.8135   -1.0936   -0.2733 C.ar      1 <0>        -0.1500
      9 C8          2.7455    1.2204    0.4075 C.ar      1 <0>        -0.1500
     10 C9          3.4487    0.0262    0.2593 C.ar      1 <0>        -0.1500
     11 H1         -3.7164    0.5538    0.5677 H         1 <0>         0.4500
     12 H2         -3.3703   -0.1821   -0.8771 H         1 <0>         0.4500
     13 H3         -3.0913    1.4436   -0.6784 H         1 <0>         0.4500
     14 H4         -1.4208    1.0407    0.9913 H         1 <0>         0.0000
     15 H5         -0.9375   -0.5712   -1.6025 H         1 <0>         0.0000
     16 H6         -0.8374    1.1707   -1.4974 H         1 <0>         0.0000
     17 H7         -1.9549   -1.9211    0.3309 H         1 <0>         0.0000
     18 H8         -2.4536   -1.0874    1.8117 H         1 <0>         0.0000
     19 H9         -0.7389   -1.3317    1.4774 H         1 <0>         0.0000
     20 H10         0.9988   -1.9087   -1.0732 H         1 <0>         0.1500
     21 H11         0.8787    2.2393    0.1417 H         1 <0>         0.1500
     22 H12         3.3641   -2.0234   -0.3912 H         1 <0>         0.1500
     23 H13         3.2434    2.0946    0.8188 H         1 <0>         0.1500
     24 H14         4.4923   -0.0304    0.5567 H         1 <0>         0.1500
@<TRIPOS>BOND
     1    1    2 1
     2    1   11 1
     3    1   12 1
     4    1   13 1
     5    2    3 1
     6    2    5 1
     7    2   14 1
     8    3    4 1
     9    3   15 1
    10    3   16 1
    11    4    6 ar
    12    4    7 ar
    13    5   17 1
    14    5   18 1
    15    5   19 1
    16    6    8 ar
    17    6   20 1
    18    7    9 ar
    19    7   21 1
    20    8   10 ar
    21    8   22 1
    22    9   10 ar
    23    9   23 1
    24   10   24 1
