@<TRIPOS>MOLECULE
DB01174
   29    30     0     0     0
SMALL
USER_CHARGES

@<TRIPOS>ATOM
      1 O1          1.0554   -0.8665   -2.2227 O.2       1 <0>        -0.5700
      2 O2          1.2434    0.6776    2.2585 O.2       1 <0>        -0.5700
      3 O3          2.0956    3.4165   -1.2324 O.2       1 <0>        -0.5700
      4 N1          1.5050    1.2759   -1.6974 N.am      1 <0>        -0.4900
      5 N2          1.6334    2.0163    0.4894 N.am      1 <0>        -0.4900
      6 C1          0.5814   -0.1876    0.0758 C.3       1 <0>         0.2650
      7 C2          0.9865   -1.6125    0.5635 C.3       1 <0>         0.0000
      8 C3         -0.9721   -0.0931    0.0748 C.ar      1 <0>        -0.1440
      9 C4          1.0743    0.0171   -1.3664 C.2       1 <0>         0.5690
     10 C5          1.1946    0.8371    1.0379 C.2       1 <0>         0.5690
     11 C6          2.4930   -1.8609    0.6195 C.3       1 <0>         0.0000
     12 C7         -1.7297   -0.9302   -0.7710 C.ar      1 <0>        -0.1500
     13 C8         -1.6810    0.8058    0.8936 C.ar      1 <0>        -0.1500
     14 C9          1.7498    2.3081   -0.8385 C.2       1 <0>         0.6900
     15 C10        -3.1255   -0.8663   -0.8017 C.ar      1 <0>        -0.1500
     16 C11        -3.0782    0.8681    0.8617 C.ar      1 <0>        -0.1500
     17 C12        -3.8005    0.0350    0.0143 C.ar      1 <0>        -0.1500
     18 H1          1.6853    1.4519   -2.6764 H         1 <0>         0.3700
     19 H2          1.9149    2.7410    1.1368 H         1 <0>         0.3700
     20 H3          0.5548   -2.3833   -0.0871 H         1 <0>         0.0000
     21 H4          0.5710   -1.7971    1.5636 H         1 <0>         0.0000
     22 H5          2.9594   -1.7395   -0.3632 H         1 <0>         0.0000
     23 H6          2.6872   -2.8855    0.9530 H         1 <0>         0.0000
     24 H7          2.9925   -1.1874    1.3219 H         1 <0>         0.0000
     25 H8         -1.2420   -1.6499   -1.4262 H         1 <0>         0.1500
     26 H9         -1.1757    1.4745    1.5860 H         1 <0>         0.1500
     27 H10        -3.6837   -1.5220   -1.4650 H         1 <0>         0.1500
     28 H11        -3.6032    1.5706    1.5057 H         1 <0>         0.1500
     29 H12        -4.8858    0.0863   -0.0079 H         1 <0>         0.1500
@<TRIPOS>BOND
     1    1    9 2
     2    2   10 2
     3    3   14 2
     4    4    9 am
     5    4   14 am
     6    4   18 1
     7    5   10 am
     8    5   14 am
     9    5   19 1
    10    6    7 1
    11    6    8 1
    12    6    9 1
    13    6   10 1
    14    7   11 1
    15    7   20 1
    16    7   21 1
    17    8   12 ar
    18    8   13 ar
    19   11   22 1
    20   11   23 1
    21   11   24 1
    22   12   15 ar
    23   12   25 1
    24   13   16 ar
    25   13   26 1
    26   15   17 ar
    27   15   27 1
    28   16   17 ar
    29   16   28 1
    30   17   29 1
