@<TRIPOS>MOLECULE
DB01303
   20    21     0     0     0
SMALL
USER_CHARGES

@<TRIPOS>ATOM
      1 C1         -0.5485   -1.4269   -0.0007 C.2       1 <0>         0.2020
      2 C2         -1.2396   -0.2382   -0.0003 C.2       1 <0>         0.3510
      3 N1         -0.6117    0.9620   -0.0003 N.am      1 <0>        -0.4360
      4 C3          0.7844    1.0218   -0.0004 C.2       1 <0>         0.6900
      5 N2          1.4561   -0.2291   -0.0001 N.am      1 <0>        -0.4200
      6 C4          0.8700   -1.5311   -0.0013 C.2       1 <0>         0.7030
      7 N3         -1.4947   -2.4119   -0.0006 N.2       1 <0>        -1.0380
      8 C5         -2.7203   -1.7999    0.0009 C.2       1 <0>         0.3760
      9 N4         -2.5625   -0.5133    0.0003 N.2       1 <0>        -1.0380
     10 O1          1.5777   -2.5435   -0.0022 O.2       1 <0>        -0.5700
     11 O2          1.3883    2.0981   -0.0009 O.2       1 <0>        -0.5700
     12 C6          2.9096   -0.2065    0.0008 C.3       1 <0>         0.3000
     13 C7         -1.3685    2.1981    0.0002 C.3       1 <0>         0.3000
     14 H1         -3.6717   -2.3102    0.0015 H         1 <0>         0.1500
     15 H2          3.3209    0.8052    0.0018 H         1 <0>         0.0000
     16 H3          3.2738   -0.7357   -0.8862 H         1 <0>         0.0000
     17 H4          3.2723   -0.7367    0.8878 H         1 <0>         0.0000
     18 H5         -2.4500    2.0390   -0.0064 H         1 <0>         0.0000
     19 H6         -1.0884    2.7826   -0.8835 H         1 <0>         0.0000
     20 H7         -1.0971    2.7762    0.8895 H         1 <0>         0.0000
@<TRIPOS>BOND
     1    1    2 2
     2    1    6 1
     3    1    7 1
     4    2    3 1
     5    2    9 1
     6    3    4 am
     7    3   13 1
     8    4    5 am
     9    4   11 2
    10    5    6 am
    11    5   12 1
    12    6   10 2
    13    7    8 1
    14    8    9 2
    15    8   14 1
    16   12   15 1
    17   12   16 1
    18   12   17 1
    19   13   18 1
    20   13   19 1
    21   13   20 1
