@<TRIPOS>MOLECULE
DB01093
   10     9     0     0     0
SMALL
USER_CHARGES

@<TRIPOS>ATOM
      1 S1          0.0000   -0.8040    0.6814 S.o       1 <0>         0.1130
      2 O1         -0.0004   -2.0985   -0.0771 O.2       1 <0>        -0.5000
      3 C1         -1.3422    0.2139    0.0199 C.3       1 <0>         0.1940
      4 H1         -1.2920    1.2125    0.4586 H         1 <0>         0.0000
      5 H2         -2.2949   -0.2512    0.2869 H         1 <0>         0.0000
      6 H3         -1.2621    0.2767   -1.0677 H         1 <0>         0.0000
      7 C2          1.3423    0.2135    0.0202 C.3       1 <0>         0.1940
      8 H4          1.3003    1.2086    0.4684 H         1 <0>         0.0000
      9 H5          1.2550    0.2869   -1.0665 H         1 <0>         0.0000
     10 H6          2.2940   -0.2584    0.2757 H         1 <0>         0.0000
@<TRIPOS>BOND
     1    1    2 2
     2    1    3 1
     3    1    7 1
     4    3    4 1
     5    3    5 1
     6    3    6 1
     7    7    8 1
     8    7    9 1
     9    7   10 1
