@<TRIPOS>MOLECULE
DB01243
   18    19     0     0     0
SMALL
USER_CHARGES

@<TRIPOS>ATOM
      1 Cl1        -0.2966   -3.3482    0.0001 Cl        1 <0>        -0.1770
      2 Cl2        -3.9499    0.5501    0.0006 Cl        1 <0>        -0.1770
      3 O1         -1.6173    2.3820   -0.0003 O.3       1 <0>        -0.5320
      4 N1          1.0299    1.6569    0.0003 N.ar      1 <0>        -0.6200
      5 C1          0.4125   -0.6793   -0.0002 C.ar      1 <0>         0.0000
      6 C2          0.0778    0.6959   -0.0002 C.ar      1 <0>         0.3100
      7 C3         -1.2784    1.0452    0.0000 C.ar      1 <0>         0.0820
      8 C4         -0.6261   -1.6456   -0.0005 C.ar      1 <0>         0.1770
      9 C5          1.7885   -1.0057   -0.0003 C.ar      1 <0>        -0.1500
     10 C6         -2.2894    0.0800   -0.0004 C.ar      1 <0>         0.1770
     11 C7         -1.9683   -1.2678   -0.0001 C.ar      1 <0>        -0.1500
     12 C8          2.7575   -0.0113    0.0004 C.ar      1 <0>        -0.1500
     13 C9          2.3303    1.2959    0.0001 C.ar      1 <0>         0.1600
     14 H1         -2.5891    2.4486   -0.0002 H         1 <0>         0.4500
     15 H2          2.1207   -2.0411    0.0002 H         1 <0>         0.1500
     16 H3         -2.7534   -2.0198    0.0005 H         1 <0>         0.1500
     17 H4          3.8139   -0.2561   -0.0003 H         1 <0>         0.1500
     18 H5          3.0372    2.1202    0.0003 H         1 <0>         0.1500
@<TRIPOS>BOND
     1    1    8 1
     2    2   10 1
     3    3    7 1
     4    3   14 1
     5    4    6 ar
     6    4   13 ar
     7    5    6 ar
     8    5    8 ar
     9    5    9 ar
    10    6    7 ar
    11    7   10 ar
    12    8   11 ar
    13    9   12 ar
    14    9   15 1
    15   10   11 ar
    16   11   16 1
    17   12   13 ar
    18   12   17 1
    19   13   18 1
