@<TRIPOS>MOLECULE
DB01422
   20    21     0     0     0
SMALL
USER_CHARGES

@<TRIPOS>ATOM
      1 O1          1.1550    2.9515    0.0213 O.3       1 <0>        -0.5320
      2 O2          1.3052   -3.1938   -0.9358 O.2       1 <0>        -0.5200
      3 O3          0.2600   -3.1469    1.0032 O.2       1 <0>        -0.5200
      4 N1         -1.3449    1.8096   -0.0057 N.ar      1 <0>        -0.6200
      5 N2          0.7920   -2.6064    0.0252 N.pl3     1 <0>         0.9070
      6 C1         -0.3600   -0.3947   -0.0009 C.ar      1 <0>         0.0000
      7 C2         -0.2499    1.0146    0.0045 C.ar      1 <0>         0.3100
      8 C3          0.8403   -1.1567    0.0109 C.ar      1 <0>         0.1330
      9 C4          1.0375    1.5793    0.0152 C.ar      1 <0>         0.0820
     10 C5          2.1104   -0.5726    0.0129 C.ar      1 <0>        -0.1500
     11 C6         -1.6680   -0.9384   -0.0300 C.ar      1 <0>        -0.1500
     12 C7          2.2059    0.8104    0.0166 C.ar      1 <0>        -0.1500
     13 C8         -2.7835   -0.1126   -0.0414 C.ar      1 <0>        -0.1500
     14 C9         -2.5701    1.2463   -0.0260 C.ar      1 <0>         0.1600
     15 H1          2.0918    3.2027    0.0302 H         1 <0>         0.4500
     16 H2          3.0136   -1.1789    0.0149 H         1 <0>         0.1500
     17 H3         -1.8364   -2.0137   -0.0424 H         1 <0>         0.1500
     18 H4          3.1875    1.2748    0.0200 H         1 <0>         0.1500
     19 H5         -3.7872   -0.5216   -0.0604 H         1 <0>         0.1500
     20 H6         -3.3991    1.9470   -0.0323 H         1 <0>         0.1500
@<TRIPOS>BOND
     1    1    9 1
     2    1   15 1
     3    2    5 2
     4    3    5 2
     5    4    7 ar
     6    4   14 ar
     7    5    8 1
     8    6    7 ar
     9    6    8 ar
    10    6   11 ar
    11    7    9 ar
    12    8   10 ar
    13    9   12 ar
    14   10   12 ar
    15   10   16 1
    16   11   13 ar
    17   11   17 1
    18   12   18 1
    19   13   14 ar
    20   13   19 1
    21   14   20 1
