@<TRIPOS>MOLECULE
DB01262
   28    29     0     0     0
SMALL
USER_CHARGES

@<TRIPOS>ATOM
      1 O1         -0.9593    0.2557   -1.1373 O.3       1 <0>        -0.5600
      2 O2         -2.7967   -2.1071   -0.3448 O.3       1 <0>        -0.6800
      3 O3         -2.6055    2.6376   -0.8007 O.3       1 <0>        -0.6800
      4 O4          1.9166   -2.5326   -0.6488 O.2       1 <0>        -0.5700
      5 N1          1.1679   -0.4067   -0.3362 N.am      1 <0>        -0.4200
      6 N2          3.4584   -0.9269   -0.2629 N.2       1 <0>        -0.6610
      7 N3          2.7200    1.2455    0.1903 N.2       1 <0>        -0.6610
      8 N4          4.9692    0.7208    0.2066 N.pl3     1 <0>        -0.8500
      9 C1         -2.3647   -0.9509    0.3695 C.3       1 <0>         0.2800
     10 C2         -0.9217   -1.1413    0.7689 C.3       1 <0>         0.0000
     11 C3         -2.3007    0.2439   -0.5848 C.3       1 <0>         0.2800
     12 C4         -0.2097   -0.8083   -0.5344 C.3       1 <0>         0.5800
     13 C5         -2.5413    1.5719    0.1418 C.3       1 <0>         0.2800
     14 C6          2.1703   -1.3478   -0.4350 C.2       1 <0>         0.8410
     15 C7          1.5099    0.8646   -0.0057 C.2       1 <0>         0.4500
     16 C8          3.6938    0.3083    0.0339 C.2       1 <0>         0.7110
     17 H1         -2.8548   -2.8460    0.2867 H         1 <0>         0.4000
     18 H2         -2.7644    3.4579   -0.3028 H         1 <0>         0.4000
     19 H3          5.7258    0.0625    0.0984 H         1 <0>         0.4000
     20 H4          5.1545    1.6845    0.4391 H         1 <0>         0.4000
     21 H5         -3.0433   -0.8028    1.2140 H         1 <0>         0.0000
     22 H6         -0.6806   -2.1515    1.1144 H         1 <0>         0.0000
     23 H7         -0.6537   -0.4294    1.5573 H         1 <0>         0.0000
     24 H8         -2.9931    0.1409   -1.4270 H         1 <0>         0.0000
     25 H9         -0.2531   -1.6626   -1.2216 H         1 <0>         0.0000
     26 H10        -1.7302    1.7955    0.8408 H         1 <0>         0.0000
     27 H11        -3.4920    1.5468    0.6850 H         1 <0>         0.0000
     28 H12         0.6786    1.5776    0.0954 H         1 <0>         0.0600
@<TRIPOS>BOND
     1    1   11 1
     2    1   12 1
     3    2    9 1
     4    2   17 1
     5    3   13 1
     6    3   18 1
     7    4   14 2
     8    5   12 1
     9    5   14 am
    10    5   15 1
    11    6   14 1
    12    6   16 2
    13    7   15 2
    14    7   16 1
    15    8   16 1
    16    8   19 1
    17    8   20 1
    18    9   10 1
    19    9   11 1
    20    9   21 1
    21   10   12 1
    22   10   22 1
    23   10   23 1
    24   11   13 1
    25   11   24 1
    26   12   25 1
    27   13   26 1
    28   13   27 1
    29   15   28 1
