@<TRIPOS>MOLECULE
DB01558
   29    31     0     0     0
SMALL
USER_CHARGES

@<TRIPOS>ATOM
      1 Br1         0.5120    4.3992   -1.1540 Br        1 <0>        -0.1110
      2 O1          2.8505   -3.2525    0.8113 O.2       1 <0>        -0.5700
      3 N1          2.6145   -1.0107    0.7050 N.am      1 <0>        -0.5470
      4 N2          0.1111   -2.0569   -0.6668 N.2       1 <0>        -0.6960
      5 N3         -2.4280   -0.4548   -1.1907 N.ar      1 <0>        -0.6200
      6 C1          0.7781    0.3151   -0.3375 C.ar      1 <0>         0.0860
      7 C2          2.0368    0.1971    0.2790 C.ar      1 <0>         0.1170
      8 C3         -0.1827   -0.8270   -0.4115 C.2       1 <0>         0.2780
      9 C4          0.3371    1.5767   -0.7776 C.ar      1 <0>        -0.1500
     10 C5          1.4870   -2.4033   -0.9810 C.3       1 <0>         0.3070
     11 C6         -1.6082   -0.5277   -0.1152 C.ar      1 <0>         0.3960
     12 C7          2.7905    1.3567    0.5229 C.ar      1 <0>        -0.1500
     13 C8          2.3385   -2.2773    0.2607 C.2       1 <0>         0.5690
     14 C9          1.1216    2.7091   -0.5649 C.ar      1 <0>         0.1110
     15 C10         2.3403    2.6071    0.0974 C.ar      1 <0>        -0.1500
     16 C11        -2.0040   -0.3199    1.1991 C.ar      1 <0>        -0.1500
     17 C12        -3.3439   -0.0269    1.4270 C.ar      1 <0>        -0.1500
     18 C13        -3.7225   -0.1763   -0.9273 C.ar      1 <0>         0.1600
     19 C14        -4.2223    0.0454    0.3483 C.ar      1 <0>        -0.1500
     20 H1          3.3424   -0.9764    1.4100 H         1 <0>         0.3700
     21 H2         -0.6222    1.6839   -1.2799 H         1 <0>         0.1500
     22 H3          1.8957   -1.7967   -1.7977 H         1 <0>         0.0000
     23 H4          1.5208   -3.4457   -1.3152 H         1 <0>         0.0000
     24 H5          3.7585    1.2954    1.0177 H         1 <0>         0.1500
     25 H6          2.9521    3.4875    0.2785 H         1 <0>         0.1500
     26 H7         -1.3021   -0.3921    2.0216 H         1 <0>         0.1500
     27 H8         -3.7054    0.1391    2.4380 H         1 <0>         0.1500
     28 H9         -4.3724   -0.1326   -1.7969 H         1 <0>         0.1500
     29 H10        -5.2738    0.2646    0.4997 H         1 <0>         0.1500
@<TRIPOS>BOND
     1    1   14 1
     2    2   13 2
     3    3    7 1
     4    3   13 am
     5    3   20 1
     6    4    8 2
     7    4   10 1
     8    5   11 ar
     9    5   18 ar
    10    6    7 ar
    11    6    8 1
    12    6    9 ar
    13    7   12 ar
    14    8   11 1
    15    9   14 ar
    16    9   21 1
    17   10   13 1
    18   10   22 1
    19   10   23 1
    20   11   16 ar
    21   12   15 ar
    22   12   24 1
    23   14   15 ar
    24   15   25 1
    25   16   17 ar
    26   16   26 1
    27   17   19 ar
    28   17   27 1
    29   18   19 ar
    30   18   28 1
    31   19   29 1
