@<TRIPOS>MOLECULE
DB01638
   26    25     0     0     0
SMALL
USER_CHARGES

@<TRIPOS>ATOM
      1 O1         -4.1722   -0.1924   -0.4327 O.3       1 <0>        -0.6800
      2 C1         -3.0386    0.6038   -0.0736 C.3       1 <0>         0.2800
      3 C2         -1.7884   -0.2015   -0.4245 C.3       1 <0>         0.2800
      4 O2         -1.8724   -1.4736    0.2524 O.3       1 <0>        -0.6800
      5 C3         -0.4780    0.5003   -0.0238 C.3       1 <0>         0.2800
      6 O3         -0.5375    0.8715    1.3584 O.3       1 <0>        -0.6800
      7 C4          0.7524   -0.4147   -0.2324 C.3       1 <0>         0.2800
      8 O4          0.5951   -1.6185    0.5340 O.3       1 <0>        -0.6800
      9 C5          2.0743    0.2504    0.1891 C.3       1 <0>         0.2800
     10 O5          2.2466    1.5272   -0.4407 O.3       1 <0>        -0.6800
     11 C6          3.2830   -0.6082   -0.2006 C.3       1 <0>         0.2800
     12 O6          4.4777    0.1169    0.0996 O.3       1 <0>        -0.6800
     13 H1         -4.9638    0.3408   -0.2382 H         1 <0>         0.4000
     14 H2         -3.0729    1.5483   -0.6248 H         1 <0>         0.0000
     15 H3         -3.1081    0.7967    1.0011 H         1 <0>         0.0000
     16 H4         -1.7786   -0.4282   -1.4973 H         1 <0>         0.0000
     17 H5         -2.8157   -1.7319    0.1428 H         1 <0>         0.4000
     18 H6         -0.3754    1.4227   -0.6049 H         1 <0>         0.0000
     19 H7         -0.5643    0.0306    1.8589 H         1 <0>         0.4000
     20 H8          0.7987   -0.6939   -1.2921 H         1 <0>         0.0000
     21 H9         -0.3585   -1.8784    0.4544 H         1 <0>         0.4000
     22 H10         2.1099    0.4113    1.2734 H         1 <0>         0.0000
     23 H11         1.7017    2.1612    0.0633 H         1 <0>         0.4000
     24 H12         3.2923   -0.8103   -1.2770 H         1 <0>         0.0000
     25 H13         3.3046   -1.5575    0.3407 H         1 <0>         0.0000
     26 H14         4.2878    1.0276   -0.2054 H         1 <0>         0.4000
@<TRIPOS>BOND
     1    1    2 1
     2    1   13 1
     3    2    3 1
     4    2   14 1
     5    2   15 1
     6    3    4 1
     7    3    5 1
     8    3   16 1
     9    4   17 1
    10    5    6 1
    11    5    7 1
    12    5   18 1
    13    6   19 1
    14    7    8 1
    15    7    9 1
    16    7   20 1
    17    8   21 1
    18    9   10 1
    19    9   11 1
    20    9   22 1
    21   10   23 1
    22   11   12 1
    23   11   24 1
    24   11   25 1
    25   12   26 1
