@<TRIPOS>MOLECULE
DB01018
   24    24     0     0     0
SMALL
USER_CHARGES

@<TRIPOS>ATOM
      1 C1          1.3665   -0.0495    0.5209 C.ar      1 <0>        -0.1440
      2 C2         -0.0663   -0.1678    0.9924 C.3       1 <0>         0.2040
      3 H1         -0.3103    0.6534    1.6767 H         1 <0>         0.0000
      4 H2         -0.2144   -1.0729    1.5923 H         1 <0>         0.0000
      5 C3          1.9412    1.2100    0.2557 C.ar      1 <0>         0.1770
      6 C4          2.1513   -1.1912    0.2673 C.ar      1 <0>         0.1770
      7 C5         -1.0666   -0.1849   -0.1488 C.2       1 <0>         0.5690
      8 C6          3.2564    1.3211   -0.2094 C.ar      1 <0>        -0.1500
      9 H3          3.6900    2.2990   -0.4082 H         1 <0>         0.1500
     10 Cl1         1.0589    2.6832    0.4750 Cl        1 <0>        -0.1770
     11 C7          3.4654   -1.0751   -0.1992 C.ar      1 <0>        -0.1500
     12 H4          4.0616   -1.9646   -0.3908 H         1 <0>         0.1500
     13 Cl2         1.5428   -2.7947    0.5014 Cl        1 <0>        -0.1770
     14 N1         -2.3797   -0.0331    0.2780 N.am      1 <0>        -0.4900
     15 H5         -2.5564    0.0710    1.2665 H         1 <0>         0.3700
     16 O1         -0.7624   -0.3340   -1.3314 O.2       1 <0>        -0.5700
     17 C8          4.0202    0.1799   -0.4338 C.ar      1 <0>        -0.1500
     18 H6          5.0387    0.2664   -0.8000 H         1 <0>         0.1500
     19 C9         -3.4788   -0.0090   -0.5408 C.2       1 <0>         0.5600
     20 N2         -4.6843    0.1499    0.0413 N.pl3     1 <0>        -0.8500
     21 H7         -5.4890    0.1682   -0.5732 H         1 <0>         0.4000
     22 H8         -4.8373    0.2506    1.0322 H         1 <0>         0.4000
     23 N3         -3.3773   -0.1329   -1.8200 N.2       1 <0>        -0.8500
     24 H9         -2.3705   -0.2432   -2.0442 H         1 <0>         0.4000
@<TRIPOS>BOND
     1    1    2 1
     2    1    5 ar
     3    1    6 ar
     4    2    3 1
     5    2    4 1
     6    2    7 1
     7    5    8 ar
     8    5   10 1
     9    6   11 ar
    10    6   13 1
    11    7   14 am
    12    7   16 2
    13    8    9 1
    14    8   17 ar
    15   11   12 1
    16   11   17 ar
    17   14   15 1
    18   14   19 1
    19   17   18 1
    20   19   20 1
    21   19   23 2
    22   20   21 1
    23   20   22 1
    24   23   24 1
