@<TRIPOS>MOLECULE
DB01428
   29    30     0     0     0
SMALL
USER_CHARGES

@<TRIPOS>ATOM
      1 O1         -4.1488    0.9394    0.2723 O.3       1 <0>        -0.3630
      2 O2          0.3554    1.1210    1.6701 O.3       1 <0>        -0.5320
      3 O3          1.1095   -2.5378    0.6011 O.2       1 <0>        -0.5700
      4 C1         -0.3273   -0.7258    0.3094 C.ar      1 <0>         0.0860
      5 C2          1.0199   -1.3420    0.3312 C.2       1 <0>         0.3980
      6 C3          2.2479   -0.5735   -0.0015 C.ar      1 <0>         0.0860
      7 C4         -0.6185    0.4723    0.9646 C.ar      1 <0>         0.0820
      8 C5         -1.3460   -1.4145   -0.3587 C.ar      1 <0>        -0.1500
      9 C6         -2.9279    0.3210    0.2361 C.ar      1 <0>         0.0820
     10 C7         -1.9114    0.9970    0.9205 C.ar      1 <0>        -0.1500
     11 C8         -2.6415   -0.8893   -0.4001 C.ar      1 <0>        -0.1500
     12 C9          3.4722   -1.0174    0.5162 C.ar      1 <0>        -0.1500
     13 C10         2.2174    0.5376   -0.8531 C.ar      1 <0>        -0.1500
     14 C11         4.6528   -0.3399    0.2062 C.ar      1 <0>        -0.1500
     15 C12         3.4022    1.2127   -1.1597 C.ar      1 <0>        -0.1500
     16 C13         4.6170    0.7757   -0.6297 C.ar      1 <0>        -0.1500
     17 C14        -5.2180    0.2959   -0.4109 C.3       1 <0>         0.2800
     18 H1         -0.0225    1.9089    2.0948 H         1 <0>         0.4500
     19 H2         -1.1365   -2.3627   -0.8496 H         1 <0>         0.1500
     20 H3         -2.1526    1.9306    1.4235 H         1 <0>         0.1500
     21 H4         -3.4024   -1.4513   -0.9332 H         1 <0>         0.1500
     22 H5          3.5104   -1.8892    1.1651 H         1 <0>         0.1500
     23 H6          1.2886    0.8890   -1.2916 H         1 <0>         0.1500
     24 H7          5.5991   -0.6837    0.6147 H         1 <0>         0.1500
     25 H8          3.3789    2.0770   -1.8175 H         1 <0>         0.1500
     26 H9          5.5355    1.3021   -0.8722 H         1 <0>         0.1500
     27 H10        -6.1117    0.9149   -0.2896 H         1 <0>         0.0000
     28 H11        -5.4310   -0.6857    0.0253 H         1 <0>         0.0000
     29 H12        -5.0106    0.2175   -1.4834 H         1 <0>         0.0000
@<TRIPOS>BOND
     1    1    9 1
     2    1   17 1
     3    2    7 1
     4    2   18 1
     5    3    5 2
     6    4    5 1
     7    4    7 ar
     8    4    8 ar
     9    5    6 1
    10    6   12 ar
    11    6   13 ar
    12    7   10 ar
    13    8   11 ar
    14    8   19 1
    15    9   10 ar
    16    9   11 ar
    17   10   20 1
    18   11   21 1
    19   12   14 ar
    20   12   22 1
    21   13   15 ar
    22   13   23 1
    23   14   16 ar
    24   14   24 1
    25   15   16 ar
    26   15   25 1
    27   16   26 1
    28   17   27 1
    29   17   28 1
    30   17   29 1
