@<TRIPOS>MOLECULE
DB01159
    8     7     0     0     0
SMALL
USER_CHARGES

@<TRIPOS>ATOM
      1 Br1        -1.6439    1.4989   -0.4350 Br        1 <0>        -0.2300
      2 Cl1        -1.4014   -1.5298   -0.5587 Cl        1 <0>        -0.2900
      3 F1          1.3135    1.1222    0.5511 F         1 <0>        -0.3400
      4 F2          1.4595   -1.0403    0.4103 F         1 <0>        -0.3400
      5 F3          1.0723    0.1395   -1.3838 F         1 <0>        -0.3400
      6 C1          0.7896    0.0365   -0.0669 C.3       1 <0>         1.0200
      7 C2         -0.6970   -0.0851    0.2048 C.3       1 <0>         0.5200
      8 H1         -0.8928   -0.1419    1.2783 H         1 <0>         0.0000
@<TRIPOS>BOND
     1    1    7 1
     2    2    7 1
     3    3    6 1
     4    4    6 1
     5    5    6 1
     6    6    7 1
     7    7    8 1
