@<TRIPOS>MOLECULE
DB01247
   30    31     0     0     0
SMALL
USER_CHARGES

@<TRIPOS>ATOM
      1 O1          4.6007    1.2907   -0.3131 O.3       1 <0>        -0.0190
      2 O2          1.1980   -1.4471    0.9084 O.2       1 <0>        -0.5700
      3 N1         -0.7527    0.5262    0.6576 N.3       1 <0>        -0.6390
      4 N2          0.6172    0.7291    0.4121 N.am      1 <0>        -0.4210
      5 N3          3.2301    1.3038   -0.1184 N.2       1 <0>        -0.4100
      6 C1         -1.4948    0.4077   -0.6022 C.3       1 <0>         0.4140
      7 C2         -2.9599    0.1438   -0.3490 C.ar      1 <0>        -0.1440
      8 C3         -3.4802   -1.1545   -0.4492 C.ar      1 <0>        -0.1500
      9 C4         -3.8180    1.1922    0.0161 C.ar      1 <0>        -0.1500
     10 C5          2.9028    0.0581    0.2676 C.2       1 <0>         0.2030
     11 C6          1.5233   -0.3136    0.5620 C.2       1 <0>         0.7160
     12 C7         -4.8340   -1.3956   -0.2065 C.ar      1 <0>        -0.1500
     13 C8         -5.1707    0.9483    0.2594 C.ar      1 <0>        -0.1500
     14 C9          4.0519   -0.7690    0.3290 C.2       1 <0>        -0.1500
     15 C10         5.0866    0.0502   -0.0446 C.2       1 <0>        -0.0400
     16 C11        -5.6797   -0.3453    0.1461 C.ar      1 <0>        -0.1500
     17 C12         6.5392   -0.1343   -0.2067 C.3       1 <0>         0.1800
     18 H1         -0.8494   -0.3585    1.1695 H         1 <0>         0.3600
     19 H2          0.9544    1.6488    0.1317 H         1 <0>         0.3700
     20 H3         -1.0779   -0.3984   -1.2195 H         1 <0>         0.0000
     21 H4         -1.3990    1.3314   -1.1867 H         1 <0>         0.0000
     22 H5         -2.8341   -1.9880   -0.7196 H         1 <0>         0.1500
     23 H6         -3.4316    2.2038    0.1166 H         1 <0>         0.1500
     24 H7         -5.2282   -2.4054   -0.2904 H         1 <0>         0.1500
     25 H8         -5.8276    1.7680    0.5402 H         1 <0>         0.1500
     26 H9          4.1051   -1.8129    0.6040 H         1 <0>         0.1500
     27 H10        -6.7325   -0.5334    0.3353 H         1 <0>         0.1500
     28 H11         7.0886    0.5723    0.4225 H         1 <0>         0.0000
     29 H12         6.8318    0.0292   -1.2485 H         1 <0>         0.0000
     30 H13         6.8407   -1.1477    0.0763 H         1 <0>         0.0000
@<TRIPOS>BOND
     1    1    5 1
     2    1   15 1
     3    2   11 2
     4    3    4 1
     5    3    6 1
     6    3   18 1
     7    4   11 am
     8    4   19 1
     9    5   10 2
    10    6    7 1
    11    6   20 1
    12    6   21 1
    13    7    8 ar
    14    7    9 ar
    15    8   12 ar
    16    8   22 1
    17    9   13 ar
    18    9   23 1
    19   10   11 1
    20   10   14 1
    21   12   16 ar
    22   12   24 1
    23   13   16 ar
    24   13   25 1
    25   14   15 2
    26   14   26 1
    27   15   17 1
    28   16   27 1
    29   17   28 1
    30   17   29 1
    31   17   30 1
