@<TRIPOS>MOLECULE
DB01019
   28    27     0     0     0
SMALL
USER_CHARGES

@<TRIPOS>ATOM
      1 O1         -1.5380    0.8258    0.1519 O.3       1 <0>        -0.4300
      2 O2         -3.1584    2.2118    0.8775 O.2       1 <0>        -0.5700
      3 N1          1.5209    0.1597   -0.0302 N.4       1 <0>        -1.0120
      4 N2         -3.7782    0.3721   -0.2736 N.am      1 <0>        -0.8000
      5 H1         -4.7466    0.6525   -0.1758 H         1 <0>         0.3700
      6 H2         -3.5948   -0.4833   -0.7706 H         1 <0>         0.3700
      7 C1          0.3781   -0.0703   -1.0520 C.3       1 <0>         0.5030
      8 H3          0.3317    0.8497   -1.6485 H         1 <0>         0.0000
      9 H4          0.7092   -0.8839   -1.7071 H         1 <0>         0.0000
     10 C2         -1.0497   -0.3573   -0.5275 C.3       1 <0>         0.2800
     11 H5         -1.6553   -0.5143   -1.4277 H         1 <0>         0.0000
     12 C3          2.0234   -1.1425    0.5842 C.3       1 <0>         0.5030
     13 H6          1.2777   -1.5310    1.2756 H         1 <0>         0.0000
     14 H7          2.9447   -0.9319    1.1368 H         1 <0>         0.0000
     15 H8          2.2207   -1.8552   -0.2215 H         1 <0>         0.0000
     16 C4          2.6983    0.7775   -0.8068 C.3       1 <0>         0.5030
     17 H9          3.5343    0.9261   -0.1158 H         1 <0>         0.0000
     18 H10         2.3762    1.7382   -1.2203 H         1 <0>         0.0000
     19 H11         2.9817    0.0866   -1.6073 H         1 <0>         0.0000
     20 C5          1.1357    1.1370    1.0748 C.3       1 <0>         0.5030
     21 H12         2.0320    1.3620    1.6622 H         1 <0>         0.0000
     22 H13         0.3916    0.6687    1.7223 H         1 <0>         0.0000
     23 H14         0.7510    2.0513    0.6126 H         1 <0>         0.0000
     24 C6         -1.1916   -1.5742    0.3728 C.3       1 <0>         0.0000
     25 H15        -0.8584   -1.3652    1.3938 H         1 <0>         0.0000
     26 H16        -0.6507   -2.4361   -0.0285 H         1 <0>         0.0000
     27 H17        -2.2441   -1.8621    0.4662 H         1 <0>         0.0000
     28 C7         -2.8414    1.1882    0.2825 C.2       1 <0>         0.7800
@<TRIPOS>BOND
     1    1   10 1
     2    1   28 1
     3    2   28 2
     4    3    7 1
     5    3   12 1
     6    3   16 1
     7    3   20 1
     8    4    5 1
     9    4    6 1
    10    4   28 am
    11    7    8 1
    12    7    9 1
    13    7   10 1
    14   10   11 1
    15   10   24 1
    16   12   13 1
    17   12   14 1
    18   12   15 1
    19   16   17 1
    20   16   18 1
    21   16   19 1
    22   20   21 1
    23   20   22 1
    24   20   23 1
    25   24   25 1
    26   24   26 1
    27   24   27 1
