@<TRIPOS>MOLECULE
DB01370
    4     3     0     0     0
SMALL
USER_CHARGES

@<TRIPOS>ATOM
      1 Al1        -0.0008   -0.0001   -0.0381 Al        1 <0>         0.4430
      2 H1         -1.6935   -0.2927    0.0127 H         1 <0>        -0.1480
      3 H2          1.1009   -1.3189    0.0127 H         1 <0>        -0.1480
      4 H3          0.5934    1.6117    0.0127 H         1 <0>        -0.1480
@<TRIPOS>BOND
     1    1    2 1
     2    1    3 1
     3    1    4 1
