@<TRIPOS>MOLECULE
DB01236
   15    14     0     0     0
SMALL
USER_CHARGES

@<TRIPOS>ATOM
      1 F1         -0.4060   -2.3588    0.5208 F         1 <0>        -0.3400
      2 F2         -0.3331   -1.2735   -1.3648 F         1 <0>        -0.3400
      3 F3         -2.1889   -1.3644   -0.2253 F         1 <0>        -0.3400
      4 F4         -0.6087    2.3537    0.5114 F         1 <0>        -0.3400
      5 F5         -0.4408    1.2725   -1.3698 F         1 <0>        -0.3400
      6 F6         -2.2969    1.2064   -0.2316 F         1 <0>        -0.3400
      7 F7          3.1037    0.1607    0.5182 F         1 <0>        -0.3400
      8 O1          0.9386    0.0636    1.0117 O.3       1 <0>        -0.5600
      9 C1         -0.4550   -0.0006    0.6416 C.3       1 <0>         0.2800
     10 C2         -0.8477   -1.2517   -0.1173 C.3       1 <0>         1.0200
     11 C3         -0.9514    1.2097   -0.1229 C.3       1 <0>         1.0200
     12 C4          1.8772    0.0380   -0.0526 C.3       1 <0>         0.6200
     13 H1         -0.9884   -0.0196    1.5993 H         1 <0>         0.0000
     14 H2          1.8532   -0.9160   -0.5845 H         1 <0>         0.0000
     15 H3          1.7441    0.8798   -0.7342 H         1 <0>         0.0000
@<TRIPOS>BOND
     1    1   10 1
     2    2   10 1
     3    3   10 1
     4    4   11 1
     5    5   11 1
     6    6   11 1
     7    7   12 1
     8    8    9 1
     9    8   12 1
    10    9   10 1
    11    9   11 1
    12    9   13 1
    13   12   14 1
    14   12   15 1
