@<TRIPOS>MOLECULE
DB01099
   13    13     0     0     0
SMALL
USER_CHARGES

@<TRIPOS>ATOM
      1 F1         -0.8141   -2.3300   -0.0004 F         1 <0>        -0.1500
      2 O1          2.1786    2.0840    0.0014 O.2       1 <0>        -0.5700
      3 N1          0.1449    1.1184   -0.0010 N.am      1 <0>        -0.5390
      4 H1         -0.2418    2.0510   -0.0015 H         1 <0>         0.3700
      5 N2         -2.0474    0.2355    0.0001 N.pl3     1 <0>        -0.9000
      6 H2         -2.6678   -0.5660    0.0022 H         1 <0>         0.4000
      7 H3         -2.4354    1.1686   -0.0004 H         1 <0>         0.4000
      8 N3          2.1094   -0.2039    0.0002 N.2       1 <0>        -0.6610
      9 C1         -0.6997    0.0421   -0.0003 C.2       1 <0>         0.2090
     10 C2         -0.1351   -1.1699   -0.0008 C.2       1 <0>         0.1640
     11 C3          1.5250    1.0442    0.0006 C.2       1 <0>         0.8410
     12 C4          1.3238   -1.2313    0.0000 C.2       1 <0>         0.3760
     13 H4          1.7596   -2.2426   -0.0002 H         1 <0>         0.0600
@<TRIPOS>BOND
     1    1   10 1
     2    2   11 2
     3    3    4 1
     4    3    9 1
     5    3   11 am
     6    5    6 1
     7    5    7 1
     8    5    9 1
     9    8   11 1
    10    8   12 2
    11    9   10 2
    12   10   12 1
    13   12   13 1
