@<TRIPOS>MOLECULE
DB01107
   30    30     0     0     0
SMALL
USER_CHARGES

@<TRIPOS>ATOM
      1 O1          0.1510    1.1648   -1.4527 O.2       1 <0>        -0.5700
      2 O2         -0.5394   -2.5802    1.4258 O.2       1 <0>        -0.5700
      3 N1          1.4541   -1.8922    0.6702 N.am      1 <0>        -0.7300
      4 H1          1.8329   -2.7247    1.1104 H         1 <0>         0.3700
      5 C1         -0.5606   -0.4969    0.1653 C.3       1 <0>         0.1220
      6 C2          1.8641    0.4298    0.0561 C.3       1 <0>         0.0610
      7 H2          1.7950    0.7534    1.1020 H         1 <0>         0.0000
      8 C3          0.4619    0.4231   -0.5204 C.2       1 <0>         0.4480
      9 C4         -1.2471    0.2471    1.3456 C.3       1 <0>         0.0000
     10 H3         -2.1879   -0.2604    1.5965 H         1 <0>         0.0000
     11 H4         -0.6211    0.1575    2.2449 H         1 <0>         0.0000
     12 C5         -1.5508   -1.0631   -0.8950 C.3       1 <0>         0.0000
     13 H5         -0.9800   -1.3858   -1.7774 H         1 <0>         0.0000
     14 H6         -2.0306   -1.9736   -0.5118 H         1 <0>         0.0000
     15 C6          0.1034   -1.7382    0.7967 C.2       1 <0>         0.5690
     16 C7          2.3412   -1.0046   -0.0411 C.3       1 <0>         0.3000
     17 H7          3.3401   -1.1216    0.3938 H         1 <0>         0.0000
     18 H8          2.3791   -1.3532   -1.0798 H         1 <0>         0.0000
     19 C8          2.7986    1.3746   -0.6898 C.3       1 <0>         0.0000
     20 H9          2.8760    1.1111   -1.7504 H         1 <0>         0.0000
     21 H10         3.8050    1.3465   -0.2582 H         1 <0>         0.0000
     22 H11         2.4349    2.4061   -0.6314 H         1 <0>         0.0000
     23 C9         -1.5273    1.7351    1.1605 C.3       1 <0>         0.0000
     24 H12        -2.1343    1.9417    0.2776 H         1 <0>         0.0000
     25 H13        -0.5989    2.3097    1.0849 H         1 <0>         0.0000
     26 H14        -2.0715    2.1180    2.0312 H         1 <0>         0.0000
     27 C10        -2.6731   -0.1473   -1.3654 C.3       1 <0>         0.0000
     28 H15        -2.2961    0.7816   -1.7980 H         1 <0>         0.0000
     29 H16        -3.3599    0.0941   -0.5496 H         1 <0>         0.0000
     30 H17        -3.2588   -0.6526   -2.1405 H         1 <0>         0.0000
@<TRIPOS>BOND
     1    1    8 2
     2    2   15 2
     3    3    4 1
     4    3   15 am
     5    3   16 1
     6    5    8 1
     7    5    9 1
     8    5   12 1
     9    5   15 1
    10    6    7 1
    11    6    8 1
    12    6   16 1
    13    6   19 1
    14    9   10 1
    15    9   11 1
    16    9   23 1
    17   12   13 1
    18   12   14 1
    19   12   27 1
    20   16   17 1
    21   16   18 1
    22   19   20 1
    23   19   21 1
    24   19   22 1
    25   23   24 1
    26   23   25 1
    27   23   26 1
    28   27   28 1
    29   27   29 1
    30   27   30 1
