@<TRIPOS>MOLECULE
DB01401
   15    15     0     0     0
SMALL
USER_CHARGES

@<TRIPOS>ATOM
      1 C1         -1.6337   -1.0352    0.0002 C.ar      1 <0>        -0.1500
      2 C2         -2.0374    0.3026    0.0003 C.ar      1 <0>        -0.1500
      3 C3         -1.0854    1.3216   -0.0008 C.ar      1 <0>        -0.1500
      4 C4          0.2640    0.9878    0.0002 C.ar      1 <0>         0.0820
      5 C5          0.6921   -0.3500    0.0001 C.ar      1 <0>        -0.1790
      6 C6         -0.2749   -1.3628    0.0001 C.ar      1 <0>        -0.1500
      7 C7          2.1647   -0.6408   -0.0005 C.2       1 <0>         0.9790
      8 O1          2.8953    0.4136    0.0011 O.co2     1 <0>        -0.9000
      9 O2          2.5526   -1.8467   -0.0019 O.co2     1 <0>        -0.9000
     10 O3          1.1948    2.0030    0.0003 O.3       1 <0>        -0.5320
     11 H1         -2.3785   -1.8263    0.0009 H         1 <0>         0.1500
     12 H2         -3.0952    0.5499   -0.0003 H         1 <0>         0.1500
     13 H3         -1.3877    2.3630   -0.0011 H         1 <0>         0.1500
     14 H4          0.0343   -2.4056    0.0004 H         1 <0>         0.1500
     15 H5          2.0950    1.5258    0.0010 H         1 <0>         0.4500
@<TRIPOS>BOND
     1    1    2 ar
     2    1    6 ar
     3    1   11 1
     4    2    3 ar
     5    2   12 1
     6    3    4 ar
     7    3   13 1
     8    4    5 ar
     9    4   10 1
    10    5    6 ar
    11    5    7 1
    12    6   14 1
    13    7    8 2
    14    7    9 1
    15   10   15 1
