@<TRIPOS>MOLECULE
DB01352
   29    29     0     0     0
SMALL
USER_CHARGES

@<TRIPOS>ATOM
      1 C1          1.8832    1.8795   -0.3196 C.3       1 <0>         0.0000
      2 C2          1.5258    0.5756    0.4087 C.3       1 <0>         0.0000
      3 C3          2.5402   -0.5077    0.0070 C.3       1 <0>         0.0000
      4 C4          0.0282    0.1081    0.2456 C.3       1 <0>         0.1220
      5 C5         -0.9584    1.2730    0.5461 C.3       1 <0>         0.1380
      6 C6         -2.4115    0.8643    0.5874 C.2       1 <0>        -0.2880
      7 C7         -0.2183   -0.3524   -1.1869 C.2       1 <0>         0.5690
      8 O1         -0.2269    0.4167   -2.1479 O.2       1 <0>        -0.5700
      9 N1         -0.4047   -1.6934   -1.3896 N.am      1 <0>        -0.4900
     10 C8         -0.4836   -2.6681   -0.4392 C.2       1 <0>         0.6900
     11 O2         -0.6354   -3.8501   -0.7316 O.2       1 <0>        -0.5700
     12 N2         -0.3985   -2.2511    0.8572 N.am      1 <0>        -0.4900
     13 C9         -0.2037   -0.9716    1.3004 C.2       1 <0>         0.5690
     14 O3         -0.1885   -0.7347    2.5084 O.2       1 <0>        -0.5700
     15 C10        -3.2926    1.1382   -0.3825 C.2       1 <0>        -0.3000
     16 H1          2.9308    2.1455   -0.1314 H         1 <0>         0.0000
     17 H2          1.2799    2.7197    0.0351 H         1 <0>         0.0000
     18 H3          1.7602    1.7927   -1.4021 H         1 <0>         0.0000
     19 H4          1.6957    0.7739    1.4770 H         1 <0>         0.0000
     20 H5          2.4917   -0.7326   -1.0630 H         1 <0>         0.0000
     21 H6          2.3802   -1.4378    0.5614 H         1 <0>         0.0000
     22 H7          3.5618   -0.1765    0.2268 H         1 <0>         0.0000
     23 H8         -0.8455    2.0704   -0.2001 H         1 <0>         0.0000
     24 H9         -0.7172    1.7315    1.5149 H         1 <0>         0.0000
     25 H10        -2.7581    0.3427    1.4786 H         1 <0>         0.1500
     26 H11        -0.5070   -1.9939   -2.3504 H         1 <0>         0.3700
     27 H12        -0.4968   -2.9656    1.5663 H         1 <0>         0.3700
     28 H13        -4.3310    0.8364   -0.2915 H         1 <0>         0.1500
     29 H14        -3.0001    1.6672   -1.2850 H         1 <0>         0.1500
@<TRIPOS>BOND
     1    1    2 1
     2    1   16 1
     3    1   17 1
     4    1   18 1
     5    2    3 1
     6    2    4 1
     7    2   19 1
     8    3   20 1
     9    3   21 1
    10    3   22 1
    11    4    5 1
    12    4    7 1
    13    4   13 1
    14    5    6 1
    15    5   23 1
    16    5   24 1
    17    6   15 2
    18    6   25 1
    19    7    8 2
    20    7    9 am
    21    9   10 am
    22    9   26 1
    23   10   11 2
    24   10   12 am
    25   12   13 am
    26   12   27 1
    27   13   14 2
    28   15   28 1
    29   15   29 1
