@<TRIPOS>MOLECULE
DB01028
   12    11     0     0     0
SMALL
USER_CHARGES

@<TRIPOS>ATOM
      1 Cl1        -2.1228    1.7992    0.4688 Cl        1 <0>        -0.2900
      2 Cl2        -3.0156   -0.9640    0.3149 Cl        1 <0>        -0.2900
      3 F1         -0.1510   -1.5333   -0.3723 F         1 <0>        -0.3400
      4 F2         -0.1904   -0.3575    1.4707 F         1 <0>        -0.3400
      5 O1          0.6371    0.5687   -0.4204 O.3       1 <0>        -0.5600
      6 C1         -0.3618   -0.2873    0.1281 C.3       1 <0>         0.9600
      7 C2         -1.7670    0.1923   -0.2339 C.3       1 <0>         0.5800
      8 H1         -1.8688    0.2873   -1.3191 H         1 <0>         0.0000
      9 C3          1.9464    0.1453   -0.0710 C.3       1 <0>         0.2800
     10 H2          2.6605    0.8383   -0.5238 H         1 <0>         0.0000
     11 H3          2.1474   -0.8586   -0.4567 H         1 <0>         0.0000
     12 H4          2.0860    0.1696    1.0147 H         1 <0>         0.0000
@<TRIPOS>BOND
     1    1    7 1
     2    2    7 1
     3    3    6 1
     4    4    6 1
     5    5    6 1
     6    5    9 1
     7    6    7 1
     8    7    8 1
     9    9   10 1
    10    9   11 1
    11    9   12 1
