@<TRIPOS>MOLECULE
DB01377
    5     4     0     0     0
SMALL
USER_CHARGES

@<TRIPOS>ATOM
      1 Mg1        -0.4721    0.0043    0.1467 Mg        1 <0>        -0.0220
      2 O1          1.1977    0.6650   -0.1714 O.3       1 <0>        -0.9330
      3 H1         -0.7086   -1.6623   -0.0777 H         1 <0>        -0.2230
      4 H2         -1.8084    1.0421   -0.0100 H         1 <0>        -0.2230
      5 H3          1.7913   -0.0490    0.1124 H         1 <0>         0.4000
@<TRIPOS>BOND
     1    1    2 1
     2    1    3 1
     3    1    4 1
     4    2    5 1
