@<TRIPOS>MOLECULE
DB01008
   28    27     0     0     0
SMALL
USER_CHARGES

@<TRIPOS>ATOM
      1 S1          4.4454    0.7022   -0.0818 S.o2      1 <0>         1.3780
      2 S2         -4.4388   -0.7100   -0.0831 S.o2      1 <0>         1.3780
      3 O1          3.0458   -0.1290   -0.0070 O.3       1 <0>        -0.4640
      4 O2         -3.0473    0.1354    0.0098 O.3       1 <0>        -0.4640
      5 O3          4.5888    1.2412   -1.4177 O.2       1 <0>        -0.6500
      6 O4          4.5512    1.5341    1.0980 O.2       1 <0>        -0.6500
      7 O5         -4.5650   -1.2406   -1.4232 O.2       1 <0>        -0.6500
      8 O6         -4.5454   -1.5509    1.0902 O.2       1 <0>        -0.6500
      9 C1          0.6693   -0.3533   -0.0177 C.3       1 <0>         0.0000
     10 H1          0.7420   -1.0032   -0.8994 H         1 <0>         0.0000
     11 H2          0.7481   -1.0179    0.8520 H         1 <0>         0.0000
     12 C2         -0.6686    0.3751   -0.0074 C.3       1 <0>         0.0000
     13 H3         -0.7495    1.0379   -0.8769 H         1 <0>         0.0000
     14 H4         -0.7423    1.0251    0.8743 H         1 <0>         0.0000
     15 C3          1.8377    0.6207   -0.0136 C.3       1 <0>         0.2800
     16 H5          1.8016    1.2565    0.8780 H         1 <0>         0.0000
     17 H6          1.8063    1.2581   -0.9050 H         1 <0>         0.0000
     18 C4         -1.8343   -0.6050   -0.0102 C.3       1 <0>         0.2800
     19 H7         -1.7904   -1.2513    0.8733 H         1 <0>         0.0000
     20 H8         -1.8009   -1.2309   -0.9083 H         1 <0>         0.0000
     21 C5          5.5363   -0.6868    0.0965 C.3       1 <0>         0.1050
     22 H9          5.3679   -1.3772   -0.7316 H         1 <0>         0.0000
     23 H10         5.3368   -1.1720    1.0543 H         1 <0>         0.0000
     24 H11         6.5631   -0.3174    0.0717 H         1 <0>         0.0000
     25 C6         -5.5464    0.6654    0.0952 C.3       1 <0>         0.1050
     26 H12        -5.3804    1.3626   -0.7276 H         1 <0>         0.0000
     27 H13        -5.3609    1.1474    1.0568 H         1 <0>         0.0000
     28 H14        -6.5699    0.2837    0.0604 H         1 <0>         0.0000
@<TRIPOS>BOND
     1    1    3 1
     2    1    5 2
     3    1    6 2
     4    1   21 1
     5    2    4 1
     6    2    7 2
     7    2    8 2
     8    2   25 1
     9    3   15 1
    10    4   18 1
    11    9   10 1
    12    9   11 1
    13    9   12 1
    14    9   15 1
    15   12   13 1
    16   12   14 1
    17   12   18 1
    18   15   16 1
    19   15   17 1
    20   18   19 1
    21   18   20 1
    22   21   22 1
    23   21   23 1
    24   21   24 1
    25   25   26 1
    26   25   27 1
    27   25   28 1
