@<TRIPOS>MOLECULE
DB01412
   21    22     0     0     0
SMALL
USER_CHARGES

@<TRIPOS>ATOM
      1 O1          1.2577   -2.6052    0.0006 O.2       1 <0>        -0.5700
      2 O2         -3.1701   -1.5722   -0.0004 O.2       1 <0>        -0.5700
      3 N1          1.7892    0.4173   -0.0007 N.pl3     1 <0>         0.0480
      4 N2         -1.7020    0.2217   -0.0000 N.am      1 <0>        -0.4230
      5 N3         -0.9514   -2.0270   -0.0003 N.am      1 <0>        -0.4900
      6 N4          0.1036    1.8762   -0.0006 N.2       1 <0>        -0.5650
      7 C1          0.6423   -0.3245    0.0000 C.2       1 <0>        -0.2370
      8 C2         -0.3716    0.5988   -0.0002 C.2       1 <0>         0.2900
      9 C3          0.4001   -1.7287   -0.0006 C.2       1 <0>         0.7150
     10 C4         -2.0172   -1.1377   -0.0007 C.2       1 <0>         0.6900
     11 C5          1.4130    1.7378   -0.0007 C.2       1 <0>         0.0370
     12 C6         -2.7785    1.1917    0.0007 C.3       1 <0>         0.3000
     13 C7          3.1555   -0.0387    0.0007 C.3       1 <0>         0.2560
     14 H1         -1.1942   -3.0076   -0.0002 H         1 <0>         0.3700
     15 H2          2.1311    2.5473   -0.0007 H         1 <0>         0.1500
     16 H3         -2.4041    2.2188    0.0018 H         1 <0>         0.0000
     17 H4         -3.4001    1.0301    0.8869 H         1 <0>         0.0000
     18 H5         -3.3992    1.0324   -0.8871 H         1 <0>         0.0000
     19 H6          3.2021   -1.1273   -0.0041 H         1 <0>         0.0000
     20 H7          3.6452    0.3450    0.8998 H         1 <0>         0.0000
     21 H8          3.6485    0.3518   -0.8942 H         1 <0>         0.0000
@<TRIPOS>BOND
     1    1    9 2
     2    2   10 2
     3    3    7 1
     4    3   11 1
     5    3   13 1
     6    4    8 1
     7    4   10 am
     8    4   12 1
     9    5    9 am
    10    5   10 am
    11    5   14 1
    12    6    8 1
    13    6   11 2
    14    7    8 2
    15    7    9 1
    16   11   15 1
    17   12   16 1
    18   12   17 1
    19   12   18 1
    20   13   19 1
    21   13   20 1
    22   13   21 1
