@<TRIPOS>MOLECULE
DB01020
   22    23     0     0     0
SMALL
USER_CHARGES

@<TRIPOS>ATOM
      1 O1          0.2628   -1.7069    0.3331 O.3       1 <0>        -0.5600
      2 O2          0.6317    1.3527    0.3030 O.3       1 <0>        -0.5600
      3 O3         -2.0870    1.0167   -0.0198 O.3       1 <0>        -0.2710
      4 O4          3.1368    0.1882   -0.9203 O.3       1 <0>        -0.6800
      5 H1          2.8143    1.0716   -1.1749 H         1 <0>         0.4000
      6 O5         -4.1730    1.6477    0.3273 O.2       1 <0>        -0.5200
      7 O6         -3.7859   -0.4413   -0.3464 O.2       1 <0>        -0.5200
      8 N1         -3.4676    0.7024   -0.0180 N.pl3     1 <0>         1.0310
      9 C1          0.1611    0.4299   -0.7032 C.3       1 <0>         0.2800
     10 C2          0.9846   -0.8376   -0.5628 C.3       1 <0>         0.2800
     11 C3         -1.2533   -0.0551   -0.4334 C.3       1 <0>         0.2800
     12 H2         -1.6176   -0.5258   -1.3570 H         1 <0>         0.0000
     13 C4          2.2636   -0.3445    0.0774 C.3       1 <0>         0.2800
     14 H3          2.8042   -1.1128    0.6360 H         1 <0>         0.0000
     15 C5         -1.0026   -1.0991    0.6415 C.3       1 <0>         0.2800
     16 H4         -1.7716   -1.8758    0.6633 H         1 <0>         0.0000
     17 H5         -0.9490   -0.6582    1.6431 H         1 <0>         0.0000
     18 C6          1.7558    0.7639    0.9852 C.3       1 <0>         0.2800
     19 H6          2.4995    1.5445    1.1714 H         1 <0>         0.0000
     20 H7          1.3969    0.3715    1.9415 H         1 <0>         0.0000
     21 H8          0.2681    0.9258   -1.6728 H         1 <0>         0.0000
     22 H9          1.1282   -1.3578   -1.5142 H         1 <0>         0.0000
@<TRIPOS>BOND
     1    1   10 1
     2    1   15 1
     3    2    9 1
     4    2   18 1
     5    3    8 1
     6    3   11 1
     7    4    5 1
     8    4   13 1
     9    6    8 2
    10    7    8 2
    11    9   10 1
    12    9   11 1
    13    9   21 1
    14   10   13 1
    15   10   22 1
    16   11   12 1
    17   11   15 1
    18   13   14 1
    19   13   18 1
    20   15   16 1
    21   15   17 1
    22   18   19 1
    23   18   20 1
