@<TRIPOS>MOLECULE
DB01577
   27    27     0     0     0
SMALL
USER_CHARGES

@<TRIPOS>ATOM
      1 N1         -2.5620    0.1628   -0.5497 N.4       1 <0>        -0.9060
      2 C1         -1.1932    0.0432    0.0898 C.3       1 <0>         0.5030
      3 C2         -0.1488   -0.0033   -1.0436 C.3       1 <0>         0.1440
      4 C3          1.2734    0.0931   -0.5508 C.ar      1 <0>        -0.1440
      5 C4         -1.1604   -1.2096    0.9640 C.3       1 <0>         0.0000
      6 C5          2.1014   -1.0389   -0.5361 C.ar      1 <0>        -0.1500
      7 C6          1.7886    1.3156   -0.0939 C.ar      1 <0>        -0.1500
      8 C7         -3.6792    0.5417    0.3628 C.3       1 <0>         0.5030
      9 C8          3.4148   -0.9503   -0.0714 C.ar      1 <0>        -0.1500
     10 C9          3.1025    1.4014    0.3691 C.ar      1 <0>        -0.1500
     11 C10         3.9152    0.2692    0.3811 C.ar      1 <0>        -0.1500
     12 H1         -2.5218    0.8773   -1.2898 H         1 <0>         0.4500
     13 H2         -2.8016   -0.7166   -1.0297 H         1 <0>         0.4500
     14 H3         -1.0574    0.9424    0.7010 H         1 <0>         0.0000
     15 H4         -0.2793   -0.9166   -1.6381 H         1 <0>         0.0000
     16 H5         -0.3152    0.8285   -1.7427 H         1 <0>         0.0000
     17 H6         -1.3624   -2.1118    0.3776 H         1 <0>         0.0000
     18 H7         -1.9001   -1.1572    1.7691 H         1 <0>         0.0000
     19 H8         -0.1836   -1.3299    1.4432 H         1 <0>         0.0000
     20 H9          1.7332   -2.0002   -0.8883 H         1 <0>         0.1500
     21 H10         1.1762    2.2146   -0.1020 H         1 <0>         0.1500
     22 H11        -3.4074    1.4660    0.8773 H         1 <0>         0.0000
     23 H12        -3.8535   -0.2759    1.0653 H         1 <0>         0.0000
     24 H13        -4.5642    0.6964   -0.2588 H         1 <0>         0.0000
     25 H14         4.0497   -1.8325   -0.0646 H         1 <0>         0.1500
     26 H15         3.4959    2.3533    0.7182 H         1 <0>         0.1500
     27 H16         4.9392    0.3371    0.7411 H         1 <0>         0.1500
@<TRIPOS>BOND
     1    1    2 1
     2    1    8 1
     3    1   12 1
     4    1   13 1
     5    2    3 1
     6    2    5 1
     7    2   14 1
     8    3    4 1
     9    3   15 1
    10    3   16 1
    11    4    6 ar
    12    4    7 ar
    13    5   17 1
    14    5   18 1
    15    5   19 1
    16    6    9 ar
    17    6   20 1
    18    7   10 ar
    19    7   21 1
    20    8   22 1
    21    8   23 1
    22    8   24 1
    23    9   11 ar
    24    9   25 1
    25   10   11 ar
    26   10   26 1
    27   11   27 1
