@<TRIPOS>MOLECULE
DB01613
   26    25     0     0     0
SMALL
USER_CHARGES

@<TRIPOS>ATOM
      1 C1          0.7358    0.1215   -0.2068 C.3       1 <0>         0.2800
      2 C2         -0.7372   -0.1247    0.2245 C.3       1 <0>         0.2800
      3 O1          1.2452    1.1716    0.6271 O.3       1 <0>        -0.2710
      4 O2         -1.2475   -1.1701   -0.6150 O.3       1 <0>        -0.2710
      5 C3         -1.5801    1.1509    0.0146 C.3       1 <0>         0.2800
      6 C4          1.5799   -1.1519    0.0093 C.3       1 <0>         0.2800
      7 O3          2.8077   -1.0808   -0.7172 O.3       1 <0>        -0.2710
      8 O4         -2.8232    1.0620    0.7100 O.3       1 <0>        -0.2710
      9 N1         -3.9401    0.7543   -0.1039 N.pl3     1 <0>         1.0310
     10 O5         -3.7212    0.4477   -1.2759 O.2       1 <0>        -0.5200
     11 O6         -5.0042    0.8112    0.5085 O.2       1 <0>        -0.5200
     12 N2         -2.0754   -2.1208    0.0380 N.pl3     1 <0>         1.0310
     13 O7         -2.3826   -1.8928    1.2069 O.2       1 <0>        -0.5200
     14 O8         -2.3783   -3.0642   -0.6887 O.2       1 <0>        -0.5200
     15 N3          2.0709    2.1200   -0.0311 N.pl3     1 <0>         1.0310
     16 O9          2.3788    1.8859   -1.1998 O.2       1 <0>        -0.5200
     17 O10         2.3719    3.0693    0.6893 O.2       1 <0>        -0.5200
     18 N4          3.9427   -0.7514    0.0608 N.pl3     1 <0>         1.0310
     19 O11         3.7520   -0.4133    1.2290 O.2       1 <0>        -0.5200
     20 O12         4.9916   -0.8270   -0.5748 O.2       1 <0>        -0.5200
     21 H1          0.7323    0.3761   -1.2751 H         1 <0>         0.0000
     22 H2         -0.7340   -0.3851    1.2900 H         1 <0>         0.0000
     23 H3         -1.6880    1.3932   -1.0494 H         1 <0>         0.0000
     24 H4         -1.0720    2.0114    0.4640 H         1 <0>         0.0000
     25 H5          1.0611   -2.0207   -0.4097 H         1 <0>         0.0000
     26 H6          1.7138   -1.3723    1.0756 H         1 <0>         0.0000
@<TRIPOS>BOND
     1    1    2 1
     2    1    3 1
     3    1    6 1
     4    1   21 1
     5    2    4 1
     6    2    5 1
     7    2   22 1
     8    3   15 1
     9    4   12 1
    10    5    8 1
    11    5   23 1
    12    5   24 1
    13    6    7 1
    14    6   25 1
    15    6   26 1
    16    7   18 1
    17    8    9 1
    18    9   10 2
    19    9   11 2
    20   12   13 2
    21   12   14 2
    22   15   16 2
    23   15   17 2
    24   18   19 2
    25   18   20 2
