@<TRIPOS>MOLECULE
DB01005
    9     8     0     0     0
SMALL
USER_CHARGES

@<TRIPOS>ATOM
      1 O1         -2.0994   -0.2502   -0.0001 O.3       1 <0>        -0.4360
      2 H1         -2.0444    0.7296    0.0000 H         1 <0>         0.4000
      3 O2         -0.1645    1.5861    0.0000 O.2       1 <0>        -0.5700
      4 N1         -0.7380   -0.6163    0.0000 N.am      1 <0>        -0.3940
      5 H2         -0.5183   -1.6021   -0.0000 H         1 <0>         0.3700
      6 N2          1.4657    0.0027   -0.0005 N.am      1 <0>        -0.8000
      7 H3          2.1857    0.7129    0.0001 H         1 <0>         0.3700
      8 H4          1.7462   -0.9663    0.0002 H         1 <0>         0.3700
      9 C1          0.1671    0.4037    0.0002 C.2       1 <0>         0.6900
@<TRIPOS>BOND
     1    1    2 1
     2    1    4 1
     3    3    9 2
     4    4    5 1
     5    4    9 am
     6    6    7 1
     7    6    8 1
     8    6    9 am
