@<TRIPOS>MOLECULE
DB01398
   15    15     0     0     0
SMALL
USER_CHARGES

@<TRIPOS>ATOM
      1 C1          1.6339    1.0354   -0.0003 C.ar      1 <0>        -0.1500
      2 C2          2.0378   -0.3029    0.0005 C.ar      1 <0>        -0.1500
      3 C3          1.0855   -1.3213   -0.0002 C.ar      1 <0>        -0.1500
      4 C4         -0.2640   -0.9885    0.0003 C.ar      1 <0>         0.0820
      5 C5         -0.6925    0.3497   -0.0005 C.ar      1 <0>        -0.1790
      6 C6          0.2739    1.3622    0.0002 C.ar      1 <0>        -0.1500
      7 C7         -2.1651    0.6407    0.0002 C.2       1 <0>         0.9790
      8 O1         -2.8951   -0.4137    0.0004 O.co2     1 <0>        -0.9000
      9 O2         -2.5516    1.8467   -0.0003 O.co2     1 <0>        -0.9000
     10 O3         -1.1952   -2.0032   -0.0005 O.3       1 <0>        -0.5320
     11 H1          2.3778    1.8275    0.0001 H         1 <0>         0.1500
     12 H2          3.0958   -0.5495    0.0000 H         1 <0>         0.1500
     13 H3          1.3887   -2.3629   -0.0001 H         1 <0>         0.1500
     14 H4         -0.0350    2.4059    0.0000 H         1 <0>         0.1500
     15 H5         -2.0948   -1.5260    0.0003 H         1 <0>         0.4500
@<TRIPOS>BOND
     1    1    2 ar
     2    1    6 ar
     3    1   11 1
     4    2    3 ar
     5    2   12 1
     6    3    4 ar
     7    3   13 1
     8    4    5 ar
     9    4   10 1
    10    5    6 ar
    11    5    7 1
    12    6   14 1
    13    7    8 2
    14    7    9 1
    15   10   15 1
