@<TRIPOS>MOLECULE
DB01399
   28    29     0     0     0
SMALL
USER_CHARGES

@<TRIPOS>ATOM
      1 O1         -0.3128   -0.3076    0.6402 O.3       1 <0>        -0.2320
      2 O2          1.5311    1.7835    0.9531 O.3       1 <0>        -0.5320
      3 O3          0.0181   -1.1067   -1.5364 O.2       1 <0>        -0.5700
      4 O4         -2.2570    2.9817   -1.1423 O.co2     1 <0>        -0.9000
      5 O5         -0.3609    2.1707   -0.2187 O.co2     1 <0>        -0.9000
      6 C1         -1.6896   -0.3066    0.3938 C.ar      1 <0>         0.0820
      7 C2          1.8404   -0.3426   -0.2304 C.ar      1 <0>         0.0860
      8 C3         -2.3314    0.8179   -0.1537 C.ar      1 <0>        -0.1790
      9 C4          2.3135    0.7710    0.4727 C.ar      1 <0>         0.0820
     10 C5         -2.4000   -1.4501    0.7767 C.ar      1 <0>        -0.1500
     11 C6          0.4175   -0.6071   -0.4916 C.2       1 <0>         0.6340
     12 C7         -3.7226    0.7343   -0.3414 C.ar      1 <0>        -0.1500
     13 C8          2.7563   -1.2831   -0.7276 C.ar      1 <0>        -0.1500
     14 C9         -3.7774   -1.5016    0.5844 C.ar      1 <0>        -0.1500
     15 C10        -4.4384   -0.4115    0.0224 C.ar      1 <0>        -0.1500
     16 C11         3.6811    0.9125    0.7157 C.ar      1 <0>        -0.1500
     17 C12         4.1233   -1.1270   -0.4957 C.ar      1 <0>        -0.1500
     18 C13         4.5849   -0.0336    0.2321 C.ar      1 <0>        -0.1500
     19 C14        -1.5965    2.0817   -0.5360 C.2       1 <0>         0.9790
     20 H1          0.6822    1.9141    0.3912 H         1 <0>         0.4500
     21 H2         -1.8776   -2.2944    1.2160 H         1 <0>         0.1500
     22 H3         -4.2583    1.5792   -0.7730 H         1 <0>         0.1500
     23 H4          2.4067   -2.1453   -1.2933 H         1 <0>         0.1500
     24 H5         -4.3341   -2.3882    0.8708 H         1 <0>         0.1500
     25 H6         -5.5132   -0.4471   -0.1330 H         1 <0>         0.1500
     26 H7          4.0412    1.7749    1.2696 H         1 <0>         0.1500
     27 H8          4.8254   -1.8603   -0.8819 H         1 <0>         0.1500
     28 H9          5.6480    0.0912    0.4164 H         1 <0>         0.1500
@<TRIPOS>BOND
     1    1    6 1
     2    1   11 1
     3    2    9 1
     4    2   20 1
     5    3   11 2
     6    4   19 2
     7    5   19 1
     8    6    8 ar
     9    6   10 ar
    10    7    9 ar
    11    7   11 1
    12    7   13 ar
    13    8   12 ar
    14    8   19 1
    15    9   16 ar
    16   10   14 ar
    17   10   21 1
    18   12   15 ar
    19   12   22 1
    20   13   17 ar
    21   13   23 1
    22   14   15 ar
    23   14   24 1
    24   15   25 1
    25   16   18 ar
    26   16   26 1
    27   17   18 ar
    28   17   27 1
    29   18   28 1
