@<TRIPOS>MOLECULE
DB01010
   28    28     0     0     0
SMALL
USER_CHARGES

@<TRIPOS>ATOM
      1 O1         -3.8175   -1.7041    0.3584 O.3       1 <0>        -0.5320
      2 H1         -3.3623   -2.5614    0.3262 H         1 <0>         0.4500
      3 N1          0.8538   -0.0830   -0.2989 N.4       1 <0>        -0.8730
      4 C1          1.5059    0.2778    1.0513 C.3       1 <0>         0.5030
      5 H2          1.2556    1.3207    1.2757 H         1 <0>         0.0000
      6 H3          1.0560   -0.3674    1.8147 H         1 <0>         0.0000
      7 C2         -0.6608    0.1330   -0.1237 C.ar      1 <0>         0.3640
      8 C3          1.3450    0.8086   -1.4446 C.3       1 <0>         0.5030
      9 H4          2.3660    0.5123   -1.7063 H         1 <0>         0.0000
     10 H5          1.3526    1.8527   -1.1210 H         1 <0>         0.0000
     11 H6          0.6902    0.6620   -2.3096 H         1 <0>         0.0000
     12 C4          1.1609   -1.5297   -0.6901 C.3       1 <0>         0.5030
     13 H7          2.2203   -1.6055   -0.9551 H         1 <0>         0.0000
     14 H8          0.5593   -1.7971   -1.5650 H         1 <0>         0.0000
     15 H9          0.9576   -2.1842    0.1621 H         1 <0>         0.0000
     16 C5          3.0186    0.1121    1.0513 C.3       1 <0>         0.0000
     17 H10         3.5007    0.7308    0.2881 H         1 <0>         0.0000
     18 H11         3.3176   -0.9285    0.9005 H         1 <0>         0.0000
     19 H12         3.4187    0.4238    2.0222 H         1 <0>         0.0000
     20 C6         -1.5549   -0.9383    0.0364 C.ar      1 <0>        -0.1500
     21 H13        -1.2213   -1.9682    0.0352 H         1 <0>         0.1500
     22 C7         -1.1716    1.4443   -0.0636 C.ar      1 <0>        -0.1500
     23 H14        -0.5241    2.3125   -0.1372 H         1 <0>         0.1500
     24 C8         -2.9182   -0.6885    0.2096 C.ar      1 <0>         0.0820
     25 C9         -2.5383    1.6790    0.1109 C.ar      1 <0>        -0.1500
     26 H15        -2.9182    2.6974    0.1505 H         1 <0>         0.1500
     27 C10        -3.4135    0.6074    0.2423 C.ar      1 <0>        -0.1500
     28 H16        -4.4782    0.7813    0.3798 H         1 <0>         0.1500
@<TRIPOS>BOND
     1    1    2 1
     2    1   24 1
     3    3    4 1
     4    3    7 1
     5    3    8 1
     6    3   12 1
     7    4    5 1
     8    4    6 1
     9    4   16 1
    10    7   20 ar
    11    7   22 ar
    12    8    9 1
    13    8   10 1
    14    8   11 1
    15   12   13 1
    16   12   14 1
    17   12   15 1
    18   16   17 1
    19   16   18 1
    20   16   19 1
    21   20   21 1
    22   20   24 ar
    23   22   23 1
    24   22   25 ar
    25   24   27 ar
    26   25   26 1
    27   25   27 ar
    28   27   28 1
