@<TRIPOS>MOLECULE
DB01033
   14    15     0     0     0
SMALL
USER_CHARGES

@<TRIPOS>ATOM
      1 S1         -0.0528    3.1774   -0.0000 S.2       1 <0>        -0.3800
      2 N1          1.7400    0.4830    0.0002 N.pl3     1 <0>         0.0330
      3 H1          2.3629    1.2802   -0.0000 H         1 <0>         0.2700
      4 N2         -1.2809   -1.1515   -0.0001 N.pl3     1 <0>        -0.5330
      5 H2         -1.5837   -2.1164   -0.0001 H         1 <0>         0.4000
      6 N3          1.0605   -1.6455    0.0002 N.2       1 <0>        -0.5650
      7 N4         -1.9089    1.1785   -0.0002 N.2       1 <0>        -0.6610
      8 C1          0.3699    0.5220    0.0001 C.2       1 <0>        -0.2370
      9 C2          0.0061   -0.7970    0.0001 C.2       1 <0>         0.3100
     10 C3         -0.5859    1.5926    0.0000 C.2       1 <0>         0.6760
     11 C4          2.1050   -0.8413   -0.0003 C.2       1 <0>         0.0370
     12 H3          3.1426   -1.1509   -0.0001 H         1 <0>         0.1500
     13 C5         -2.1622   -0.0978   -0.0003 C.2       1 <0>         0.4400
     14 H4         -3.2125   -0.4332    0.0003 H         1 <0>         0.0600
@<TRIPOS>BOND
     1    1   10 2
     2    2    3 1
     3    2    8 1
     4    2   11 1
     5    4    5 1
     6    4    9 1
     7    4   13 1
     8    6    9 1
     9    6   11 2
    10    7   10 1
    11    7   13 2
    12    8    9 2
    13    8   10 1
    14   11   12 1
    15   13   14 1
