@<TRIPOS>MOLECULE
DB02513
   25    25     0     0     0
SMALL
USER_CHARGES

@<TRIPOS>ATOM
      1 C1         -2.6119    0.2002   -1.2778 C.3       1 <0>         0.0000
      2 C2         -1.9905   -0.3226    0.0214 C.3       1 <0>         0.1440
      3 C3         -2.6397    0.3388    1.2414 C.3       1 <0>         0.0000
      4 C4         -0.4797   -0.1451    0.0216 C.ar      1 <0>        -0.1440
      5 C5          0.0901    1.1383   -0.0067 C.ar      1 <0>        -0.1500
      6 C6          1.4779    1.3116   -0.0114 C.ar      1 <0>        -0.1500
      7 C7          2.3321    0.2062    0.0206 C.ar      1 <0>        -0.1440
      8 C8          3.8191    0.3992   -0.0158 C.3       1 <0>         0.1440
      9 C9          1.7769   -1.0787    0.0328 C.ar      1 <0>        -0.1500
     10 C10         0.3880   -1.2462    0.0378 C.ar      1 <0>         0.0820
     11 O1         -0.1375   -2.5104    0.0550 O.3       1 <0>        -0.5320
     12 H1         -3.6878   -0.0033   -1.2983 H         1 <0>         0.0000
     13 H2         -2.1616   -0.2854   -2.1501 H         1 <0>         0.0000
     14 H3         -2.4768    1.2816   -1.3911 H         1 <0>         0.0000
     15 H4         -2.2342   -1.3903    0.0804 H         1 <0>         0.0000
     16 H5         -2.5218    1.4282    1.2305 H         1 <0>         0.0000
     17 H6         -2.1997   -0.0360    2.1717 H         1 <0>         0.0000
     18 H7         -3.7138    0.1232    1.2681 H         1 <0>         0.0000
     19 H8         -0.5431    2.0220   -0.0302 H         1 <0>         0.1500
     20 H9          1.8853    2.3198   -0.0395 H         1 <0>         0.1500
     21 H10         4.1109    1.2668    0.5843 H         1 <0>         0.0000
     22 H11         4.1515    0.5507   -1.0478 H         1 <0>         0.0000
     23 H12         4.3407   -0.4714    0.3961 H         1 <0>         0.0000
     24 H13         2.4368   -1.9421    0.0375 H         1 <0>         0.1500
     25 H14         0.5888   -3.1551    0.0695 H         1 <0>         0.4500
@<TRIPOS>BOND
     1    1    2 1
     2    1   12 1
     3    1   13 1
     4    1   14 1
     5    2    3 1
     6    2    4 1
     7    2   15 1
     8    3   16 1
     9    3   17 1
    10    3   18 1
    11    4    5 ar
    12    4   10 ar
    13    5    6 ar
    14    5   19 1
    15    6    7 ar
    16    6   20 1
    17    7    8 1
    18    7    9 ar
    19    8   21 1
    20    8   22 1
    21    8   23 1
    22    9   10 ar
    23    9   24 1
    24   10   11 1
    25   11   25 1
