@<TRIPOS>MOLECULE
DB02959
   28    29     0     0     0
SMALL
USER_CHARGES

@<TRIPOS>ATOM
      1 N1         -2.5588    0.4778   -1.2435 N.4       1 <0>        -0.8530
      2 C1         -0.2526    0.7497    0.6726 C.2       1 <0>        -0.1810
      3 C2         -2.1866   -0.5821   -0.2199 C.3       1 <0>         0.3970
      4 C3         -1.5331    0.0495    1.0041 C.3       1 <0>         0.1810
      5 C4         -0.0537    2.1155    0.6120 C.2       1 <0>        -0.3020
      6 N2          1.2492    2.3444    0.2606 N.pl3     1 <0>         0.0330
      7 C5          1.9111    1.1523    0.0840 C.ar      1 <0>        -0.1520
      8 C6          0.9991    0.1311    0.3526 C.ar      1 <0>         0.0000
      9 C7          1.4364   -1.2088    0.2631 C.ar      1 <0>        -0.1500
     10 C8          3.2397    0.9056   -0.2835 C.ar      1 <0>        -0.1500
     11 C9          3.6478   -0.4271   -0.3746 C.ar      1 <0>        -0.1500
     12 O1         -3.4663   -2.1720    1.0529 O.co2     1 <0>        -0.9000
     13 C10        -3.5067   -1.2684    0.1910 C.2       1 <0>         0.9060
     14 O2         -4.4571   -0.7382   -0.4859 O.co2     1 <0>        -0.9000
     15 C11         2.7605   -1.4607   -0.1024 C.ar      1 <0>         0.0820
     16 O3          3.2315   -2.7396   -0.2059 O.3       1 <0>        -0.5320
     17 H1         -3.6125    0.3048   -1.2812 H         1 <0>         0.4500
     18 H2         -2.4051    1.4424   -0.9385 H         1 <0>         0.4500
     19 H3         -2.1753    0.3036   -2.1748 H         1 <0>         0.4500
     20 H4         -1.5383   -1.2951   -0.7385 H         1 <0>         0.0000
     21 H5         -2.2267    0.7531    1.4836 H         1 <0>         0.0000
     22 H6         -1.3226   -0.7214    1.7573 H         1 <0>         0.0000
     23 H7         -0.7223    2.9461    0.7991 H         1 <0>         0.1500
     24 H8          1.6717    3.2572    0.1473 H         1 <0>         0.2700
     25 H9          0.7486   -2.0197    0.4785 H         1 <0>         0.1500
     26 H10         3.9302    1.7155   -0.4902 H         1 <0>         0.1500
     27 H11         4.6706   -0.6590   -0.6575 H         1 <0>         0.1500
     28 H12         2.5212   -3.3564    0.0377 H         1 <0>         0.4500
@<TRIPOS>BOND
     1    1    3 1
     2    1   17 1
     3    1   18 1
     4    1   19 1
     5    2    4 1
     6    2    5 2
     7    2    8 1
     8    3    4 1
     9    3   13 1
    10    3   20 1
    11    4   21 1
    12    4   22 1
    13    5    6 1
    14    5   23 1
    15    6    7 1
    16    6   24 1
    17    7    8 ar
    18    7   10 ar
    19    8    9 ar
    20    9   15 ar
    21    9   25 1
    22   10   11 ar
    23   10   26 1
    24   11   15 ar
    25   11   27 1
    26   12   13 2
    27   13   14 1
    28   15   16 1
    29   16   28 1
