@<TRIPOS>MOLECULE
DB02701
   15    15     0     0     0
SMALL
USER_CHARGES

@<TRIPOS>ATOM
      1 N1         -2.6963   -0.2546    0.0055 N.am      1 <0>        -0.8000
      2 C1         -1.6719    0.6549   -0.0041 C.2       1 <0>         0.5440
      3 O1         -1.9084    1.8586   -0.0135 O.2       1 <0>        -0.5700
      4 C2         -0.2723    0.1643   -0.0023 C.ar      1 <0>         0.0860
      5 C3          0.7705    1.0971    0.0011 C.ar      1 <0>        -0.1500
      6 C4          2.0934    0.6639    0.0029 C.ar      1 <0>        -0.1500
      7 C5          2.3331   -0.7001    0.0004 C.ar      1 <0>         0.1600
      8 N2          1.3567   -1.6330   -0.0040 N.ar      1 <0>        -0.6200
      9 C6          0.0775   -1.1797   -0.0048 C.ar      1 <0>         0.1600
     10 H1         -3.6383    0.1194    0.0027 H         1 <0>         0.3700
     11 H2         -2.6084   -1.2597    0.0149 H         1 <0>         0.3700
     12 H3          0.5581    2.1651    0.0038 H         1 <0>         0.1500
     13 H4          2.9144    1.3727    0.0054 H         1 <0>         0.1500
     14 H5          3.3465   -1.0906    0.0013 H         1 <0>         0.1500
     15 H6         -0.6545   -1.9784   -0.0093 H         1 <0>         0.1500
@<TRIPOS>BOND
     1    1    2 am
     2    1   10 1
     3    1   11 1
     4    2    3 2
     5    2    4 1
     6    4    5 ar
     7    4    9 ar
     8    5    6 ar
     9    5   12 1
    10    6    7 ar
    11    6   13 1
    12    7    8 ar
    13    7   14 1
    14    8    9 ar
    15    9   15 1
