@<TRIPOS>MOLECULE
DB03255
   13    13     0     0     0
SMALL
USER_CHARGES

@<TRIPOS>ATOM
      1 O1         -2.4012   -0.6786    0.0004 O.3       1 <0>        -0.5320
      2 C1         -1.0837   -0.3216   -0.0004 C.ar      1 <0>         0.0820
      3 C2         -0.1360   -1.3405    0.0002 C.ar      1 <0>        -0.1500
      4 C3          1.2222   -1.0205    0.0004 C.ar      1 <0>        -0.1500
      5 C4          1.6218    0.3166    0.0001 C.ar      1 <0>        -0.1500
      6 C5          0.6654    1.3332   -0.0005 C.ar      1 <0>        -0.1500
      7 C6         -0.6945    1.0158    0.0003 C.ar      1 <0>        -0.1500
      8 H1         -2.9413    0.1283    0.0001 H         1 <0>         0.4500
      9 H2         -0.4532   -2.3791   -0.0004 H         1 <0>         0.1500
     10 H3          1.9668   -1.8112   -0.0001 H         1 <0>         0.1500
     11 H4          2.6800    0.5666    0.0001 H         1 <0>         0.1500
     12 H5          0.9800    2.3742    0.0001 H         1 <0>         0.1500
     13 H6         -1.4263    1.8171   -0.0002 H         1 <0>         0.1500
@<TRIPOS>BOND
     1    1    2 1
     2    1    8 1
     3    2    3 ar
     4    2    7 ar
     5    3    4 ar
     6    3    9 1
     7    4    5 ar
     8    4   10 1
     9    5    6 ar
    10    5   11 1
    11    6    7 ar
    12    6   12 1
    13    7   13 1
