@<TRIPOS>MOLECULE
DB03754
   20    19     0     0     0
SMALL
USER_CHARGES

@<TRIPOS>ATOM
      1 C1         -1.2188   -0.8288   -0.5234 C.3       1 <0>         0.2800
      2 C2         -0.1081    1.4706   -0.5212 C.3       1 <0>         0.2800
      3 C3          1.3285   -0.6409   -0.5213 C.3       1 <0>         0.2800
      4 C4          0.0005    0.0001   -0.0940 C.3       1 <0>         0.5030
      5 N1         -0.0004   -0.0011    1.4181 N.4       1 <0>        -0.8530
      6 O1         -1.2620   -1.9976    0.3049 O.3       1 <0>        -0.6800
      7 O2         -1.1026    2.0905    0.3038 O.3       1 <0>        -0.6800
      8 O3          2.3625   -0.0922    0.3047 O.3       1 <0>        -0.6800
      9 H1         -1.1468   -1.1330   -1.5725 H         1 <0>         0.0000
     10 H2         -2.1562   -0.2837   -0.3752 H         1 <0>         0.0000
     11 H3         -0.4025    1.5619   -1.5713 H         1 <0>         0.0000
     12 H4          0.8324    2.0101   -0.3672 H         1 <0>         0.0000
     13 H5          1.5552   -0.4292   -1.5715 H         1 <0>         0.0000
     14 H6          1.3255   -1.7255   -0.3696 H         1 <0>         0.0000
     15 H7         -0.3841   -0.9063    1.7351 H         1 <0>         0.4500
     16 H8         -0.5943    0.7829    1.7367 H         1 <0>         0.4500
     17 H9          0.9738    0.1206    1.7371 H         1 <0>         0.4500
     18 H10        -2.0024   -2.5488   -0.0174 H         1 <0>         0.4000
     19 H11        -1.2094    3.0072   -0.0182 H         1 <0>         0.4000
     20 H12         3.2091   -0.4567   -0.0175 H         1 <0>         0.4000
@<TRIPOS>BOND
     1    1    4 1
     2    1    6 1
     3    1    9 1
     4    1   10 1
     5    2    4 1
     6    2    7 1
     7    2   11 1
     8    2   12 1
     9    3    4 1
    10    3    8 1
    11    3   13 1
    12    3   14 1
    13    4    5 1
    14    5   15 1
    15    5   16 1
    16    5   17 1
    17    6   18 1
    18    7   19 1
    19    8   20 1
