@<TRIPOS>MOLECULE
DB03793
   14    14     0     0     0
SMALL
USER_CHARGES

@<TRIPOS>ATOM
      1 O1          2.9771    1.1312    0.0011 O.co2     1 <0>        -0.9000
      2 C1          2.3967   -0.0001   -0.0008 C.2       1 <0>         0.9790
      3 O2          2.9763   -1.1318   -0.0014 O.co2     1 <0>        -0.9000
      4 C2          0.8837   -0.0003    0.0003 C.ar      1 <0>        -0.1790
      5 C3          0.1632   -1.2064    0.0008 C.ar      1 <0>        -0.1500
      6 C4         -1.2338   -1.2057    0.0001 C.ar      1 <0>        -0.1500
      7 C5         -1.9313    0.0001   -0.0000 C.ar      1 <0>        -0.1500
      8 C6         -1.2328    1.2063   -0.0005 C.ar      1 <0>        -0.1500
      9 C7          0.1642    1.2056    0.0002 C.ar      1 <0>        -0.1500
     10 H1          0.7001   -2.1531    0.0011 H         1 <0>         0.1500
     11 H2         -1.7739   -2.1481   -0.0006 H         1 <0>         0.1500
     12 H3         -3.0173    0.0004   -0.0001 H         1 <0>         0.1500
     13 H4         -1.7727    2.1490    0.0001 H         1 <0>         0.1500
     14 H5          0.7003    2.1530   -0.0002 H         1 <0>         0.1500
@<TRIPOS>BOND
     1    1    2 2
     2    2    3 1
     3    2    4 1
     4    4    5 ar
     5    4    9 ar
     6    5    6 ar
     7    5   10 1
     8    6    7 ar
     9    6   11 1
    10    7    8 ar
    11    7   12 1
    12    8    9 ar
    13    8   13 1
    14    9   14 1
