@<TRIPOS>MOLECULE
DB03209
   13    13     0     0     0
SMALL
USER_CHARGES

@<TRIPOS>ATOM
      1 O1         -2.9232   -0.8548    0.0009 O.co2     1 <0>        -0.9000
      2 C1         -2.3904    0.3001   -0.0002 C.2       1 <0>         0.9470
      3 O2         -2.9553    1.4323   -0.0009 O.co2     1 <0>        -0.9000
      4 C2         -0.8618    0.2432    0.0005 C.2       1 <0>         0.3630
      5 N1         -0.1847    1.3480   -0.0002 N.2       1 <0>        -0.6610
      6 C3          1.1838    1.2883   -0.0002 C.2       1 <0>         0.8410
      7 O3          1.8956    2.2917    0.0007 O.2       1 <0>        -0.5700
      8 N2          1.7856    0.0547    0.0001 N.am      1 <0>        -0.4900
      9 C4          1.1018   -1.1252   -0.0001 C.2       1 <0>         0.6900
     10 O4          1.6674   -2.2145   -0.0003 O.2       1 <0>        -0.5700
     11 N3         -0.2506   -0.9889   -0.0003 N.am      1 <0>        -0.4900
     12 H1          2.7920    0.0276   -0.0002 H         1 <0>         0.3700
     13 H2         -0.8603   -1.8025    0.0001 H         1 <0>         0.3700
@<TRIPOS>BOND
     1    1    2 2
     2    2    3 1
     3    2    4 1
     4    4    5 2
     5    4   11 1
     6    5    6 1
     7    6    7 2
     8    6    8 am
     9    8    9 am
    10    8   12 1
    11    9   10 2
    12    9   11 am
    13   11   13 1
