@<TRIPOS>MOLECULE
DB03166
    7     6     0     0     0
SMALL
USER_CHARGES

@<TRIPOS>ATOM
      1 C1         -0.6410   -0.0010   -0.0003 C.3       1 <0>        -0.1060
      2 C2          0.8779   -0.0051    0.0002 C.2       1 <0>         0.9060
      3 O1          1.4141   -1.1475    0.0005 O.co2     1 <0>        -0.9000
      4 O2          1.4108    1.1398    0.0002 O.co2     1 <0>        -0.9000
      5 H1         -1.0419   -1.0187    0.0182 H         1 <0>         0.0000
      6 H2         -1.0092    0.5003   -0.9003 H         1 <0>         0.0000
      7 H3         -1.0107    0.5324    0.8815 H         1 <0>         0.0000
@<TRIPOS>BOND
     1    1    2 1
     2    1    5 1
     3    1    6 1
     4    1    7 1
     5    2    3 2
     6    2    4 1
