@<TRIPOS>MOLECULE
DB04880
   29    30     0     0     0
SMALL
USER_CHARGES

@<TRIPOS>ATOM
      1 S1         -4.3220   -0.1575   -1.2777 S.3       1 <0>        -0.3320
      2 O1          1.4865    2.6957    0.6257 O.2       1 <0>        -0.5700
      3 O2          5.7380   -0.0199   -0.4627 O.2       1 <0>        -0.5700
      4 N1          3.6594    1.0410   -0.1608 N.am      1 <0>        -0.5390
      5 N2          3.7557   -1.1517    0.1128 N.am      1 <0>        -0.5390
      6 C1          2.3961    0.5845    0.1516 C.2       1 <0>         0.1230
      7 C2          2.4559   -0.7443    0.3351 C.2       1 <0>        -0.0290
      8 C3          1.2905    1.5419    0.2561 C.2       1 <0>         0.4690
      9 C4         -0.0735    1.1218   -0.1272 C.ar      1 <0>         0.0860
     10 C5          4.5482   -0.0383   -0.2081 C.2       1 <0>         0.6900
     11 C6          1.4411   -1.7431    0.7594 C.3       1 <0>         0.1380
     12 C7         -0.2989    0.3323   -1.2604 C.ar      1 <0>        -0.1500
     13 C8         -1.1524    1.5683    0.6408 C.ar      1 <0>        -0.1500
     14 C9         -2.6830    0.3591   -0.8019 C.ar      1 <0>         0.1020
     15 C10        -1.6011   -0.0490   -1.5910 C.ar      1 <0>        -0.1500
     16 C11        -2.4528    1.1849    0.3040 C.ar      1 <0>        -0.1500
     17 C12        -4.9503   -0.7770    0.3060 C.3       1 <0>         0.2300
     18 H1          3.9000    2.0083   -0.3250 H         1 <0>         0.3700
     19 H2          4.1073   -2.0956    0.1718 H         1 <0>         0.3700
     20 H3          1.8494   -2.3932    1.5411 H         1 <0>         0.0000
     21 H4          1.1462   -2.3714   -0.0875 H         1 <0>         0.0000
     22 H5          0.5457   -1.2742    1.1736 H         1 <0>         0.0000
     23 H6          0.5196    0.0132   -1.9006 H         1 <0>         0.1500
     24 H7         -0.9872    2.2134    1.5014 H         1 <0>         0.1500
     25 H8         -1.7629   -0.6674   -2.4715 H         1 <0>         0.1500
     26 H9         -3.2786    1.5520    0.9081 H         1 <0>         0.1500
     27 H10        -5.9079   -1.2768    0.1368 H         1 <0>         0.0000
     28 H11        -5.1135    0.0434    1.0095 H         1 <0>         0.0000
     29 H12        -4.2553   -1.5002    0.7406 H         1 <0>         0.0000
@<TRIPOS>BOND
     1    1   14 1
     2    1   17 1
     3    2    8 2
     4    3   10 2
     5    4    6 1
     6    4   10 am
     7    4   18 1
     8    5    7 1
     9    5   10 am
    10    5   19 1
    11    6    7 2
    12    6    8 1
    13    7   11 1
    14    8    9 1
    15    9   12 ar
    16    9   13 ar
    17   11   20 1
    18   11   21 1
    19   11   22 1
    20   12   15 ar
    21   12   23 1
    22   13   16 ar
    23   13   24 1
    24   14   15 ar
    25   14   16 ar
    26   15   25 1
    27   16   26 1
    28   17   27 1
    29   17   28 1
    30   17   29 1
