@<TRIPOS>MOLECULE
DB04840
   27    28     0     0     0
SMALL
USER_CHARGES

@<TRIPOS>ATOM
      1 N1         -1.3666   -0.0828    0.3986 N.pl3     1 <0>        -0.7220
      2 N2         -3.4026    0.6478   -0.5861 N.pl3     1 <0>        -0.9670
      3 N3         -2.9337   -1.6137   -0.5368 N.pl3     1 <0>        -0.9670
      4 C1          0.2221    1.7745    0.0598 C.3       1 <0>         0.1440
      5 C2         -0.9275    1.2395    0.9023 C.3       1 <0>         0.3280
      6 C3         -0.3030   -1.0689    0.7092 C.3       1 <0>         0.4710
      7 C4          1.3211    0.7502   -0.0363 C.ar      1 <0>        -0.1440
      8 C5          1.0605   -0.6036    0.2470 C.ar      1 <0>        -0.1440
      9 C6          2.6037    1.1421   -0.4470 C.ar      1 <0>        -0.1500
     10 C7          2.1074   -1.5347    0.1520 C.ar      1 <0>        -0.1500
     11 C8         -2.5473   -0.3471   -0.2317 C.cat     1 <0>         1.2000
     12 C9          3.6300    0.2036   -0.5486 C.ar      1 <0>        -0.1500
     13 C10         3.3834   -1.1328   -0.2450 C.ar      1 <0>        -0.1500
     14 H1         -4.2864    0.4480   -1.0359 H         1 <0>         0.4500
     15 H2         -3.1770    1.6225   -0.4459 H         1 <0>         0.4500
     16 H3         -3.8078   -1.7939   -1.0156 H         1 <0>         0.4500
     17 H4         -2.3877   -2.4236   -0.2789 H         1 <0>         0.4500
     18 H5          0.6001    2.6993    0.5089 H         1 <0>         0.0000
     19 H6         -0.1328    1.9994   -0.9526 H         1 <0>         0.0000
     20 H7         -0.6306    1.1283    1.9539 H         1 <0>         0.0000
     21 H8         -1.7609    1.9469    0.9041 H         1 <0>         0.0000
     22 H9         -0.5265   -2.0138    0.2084 H         1 <0>         0.0000
     23 H10        -0.2971   -1.2409    1.7916 H         1 <0>         0.0000
     24 H11         2.8107    2.1835   -0.6850 H         1 <0>         0.1500
     25 H12         1.9378   -2.5838    0.3877 H         1 <0>         0.1500
     26 H13         4.6244    0.5160   -0.8594 H         1 <0>         0.1500
     27 H14         4.1863   -1.8620   -0.3186 H         1 <0>         0.1500
@<TRIPOS>BOND
     1    1    5 1
     2    1    6 1
     3    1   11 1
     4    2   11 2
     5    2   14 1
     6    2   15 1
     7    3   11 1
     8    3   16 1
     9    3   17 1
    10    4    5 1
    11    4    7 1
    12    4   18 1
    13    4   19 1
    14    5   20 1
    15    5   21 1
    16    6    8 1
    17    6   22 1
    18    6   23 1
    19    7    8 ar
    20    7    9 ar
    21    8   10 ar
    22    9   12 ar
    23    9   24 1
    24   10   13 ar
    25   10   25 1
    26   12   13 ar
    27   12   26 1
    28   13   27 1
