@<TRIPOS>MOLECULE
DB04339
   19    18     0     0     0
SMALL
USER_CHARGES

@<TRIPOS>ATOM
      1 N1         -0.6968   -1.2641   -0.3824 N.4       1 <0>        -0.8530
      2 C1         -1.0854    0.0372    0.2589 C.3       1 <0>         0.3970
      3 C2         -0.5754    1.2296   -0.5475 C.3       1 <0>         0.2300
      4 S1          1.1078    1.0867   -1.2777 S.3       1 <0>        -0.4600
      5 C3          2.1137    0.7490    0.2124 C.3       1 <0>         0.1240
      6 C4          2.4748   -0.7447    0.1623 C.2       1 <0>         0.9060
      7 O1          3.7048   -1.0112    0.1015 O.co2     1 <0>        -0.9000
      8 O2          1.4803   -1.5460    0.2162 O.co2     1 <0>        -0.9000
      9 C5         -2.6157    0.0977    0.4769 C.2       1 <0>         0.9060
     10 O3         -3.1426   -1.0579    0.4069 O.co2     1 <0>        -0.9000
     11 O4         -3.1217    1.2291    0.6812 O.co2     1 <0>        -0.9000
     12 H1         -1.3955   -1.9592   -0.0708 H         1 <0>         0.4500
     13 H2          0.3050   -1.5478   -0.0671 H         1 <0>         0.4500
     14 H3         -0.6789   -1.2319   -1.4016 H         1 <0>         0.4500
     15 H4         -0.6287    0.0182    1.2557 H         1 <0>         0.0000
     16 H5         -0.5927    2.1363    0.0691 H         1 <0>         0.0000
     17 H6         -1.2501    1.4216   -1.3906 H         1 <0>         0.0000
     18 H7          3.0184    1.3616    0.1640 H         1 <0>         0.0000
     19 H8          1.5786    0.9958    1.1327 H         1 <0>         0.0000
@<TRIPOS>BOND
     1    1    2 1
     2    1   12 1
     3    1   13 1
     4    1   14 1
     5    2    3 1
     6    2    9 1
     7    2   15 1
     8    3    4 1
     9    3   16 1
    10    3   17 1
    11    4    5 1
    12    5    6 1
    13    5   18 1
    14    5   19 1
    15    6    7 2
    16    6    8 1
    17    9   10 2
    18    9   11 1
