@<TRIPOS>MOLECULE
DB04571
   29    31     0     0     0
SMALL
USER_CHARGES

@<TRIPOS>ATOM
      1 C1          3.1683   -2.1617    0.0010 C.3       1 <0>         0.1380
      2 C2          2.7494   -0.7201    0.0001 C.2       1 <0>        -0.1670
      3 C3          3.6574    0.2618   -0.0001 C.2       1 <0>        -0.1360
      4 C4          3.3117    1.6804   -0.0010 C.2       1 <0>         0.7060
      5 O1          4.1835    2.5409   -0.0016 O.2       1 <0>        -0.5700
      6 O2          1.9642    1.9914    0.0004 O.3       1 <0>        -0.2320
      7 C5          0.9601    0.9900    0.0006 C.ar      1 <0>         0.0820
      8 C6          1.3208   -0.3655   -0.0002 C.ar      1 <0>         0.0280
      9 C7          0.2990   -1.3309   -0.0015 C.ar      1 <0>        -0.1500
     10 C8         -1.0477   -0.9181   -0.0014 C.ar      1 <0>         0.0000
     11 C9         -2.3045   -1.5822   -0.0018 C.2       1 <0>        -0.1500
     12 C10        -3.2682   -0.5989   -0.0014 C.2       1 <0>        -0.0400
     13 O3         -2.6856    0.6324    0.0001 O.3       1 <0>        -0.2800
     14 C11        -1.3344    0.4414   -0.0005 C.ar      1 <0>         0.1400
     15 C12        -0.3723    1.4555   -0.0001 C.ar      1 <0>        -0.1440
     16 C13        -0.7038    2.9144    0.0000 C.3       1 <0>         0.1440
     17 C14        -4.7433   -0.6199    0.0013 C.3       1 <0>         0.1800
     18 H1          4.2581   -2.2711    0.0031 H         1 <0>         0.0000
     19 H2          2.7919   -2.6765    0.8921 H         1 <0>         0.0000
     20 H3          2.7947   -2.6759   -0.8911 H         1 <0>         0.0000
     21 H4          4.7214    0.0519    0.0006 H         1 <0>         0.1500
     22 H5          0.5181   -2.3930   -0.0015 H         1 <0>         0.1500
     23 H6         -2.4809   -2.6485   -0.0031 H         1 <0>         0.1500
     24 H7         -0.2863    3.3988   -0.8888 H         1 <0>         0.0000
     25 H8         -0.2967    3.3954    0.8955 H         1 <0>         0.0000
     26 H9         -1.7855    3.0813   -0.0058 H         1 <0>         0.0000
     27 H10        -5.1218   -1.6458   -0.0422 H         1 <0>         0.0000
     28 H11        -5.1366   -0.0760   -0.8632 H         1 <0>         0.0000
     29 H12        -5.1311   -0.1516    0.9103 H         1 <0>         0.0000
@<TRIPOS>BOND
     1    1    2 1
     2    1   18 1
     3    1   19 1
     4    1   20 1
     5    2    3 2
     6    2    8 1
     7    3    4 1
     8    3   21 1
     9    4    5 2
    10    4    6 1
    11    6    7 1
    12    7    8 ar
    13    7   15 ar
    14    8    9 ar
    15    9   10 ar
    16    9   22 1
    17   10   11 1
    18   10   14 ar
    19   11   12 2
    20   11   23 1
    21   12   13 1
    22   12   17 1
    23   13   14 1
    24   14   15 ar
    25   15   16 1
    26   16   24 1
    27   16   25 1
    28   16   26 1
    29   17   27 1
    30   17   28 1
    31   17   29 1
