@<TRIPOS>MOLECULE
DB04948
   29    30     0     0     0
SMALL
USER_CHARGES

@<TRIPOS>ATOM
      1 Cl1        -2.7376   -2.4134   -1.2321 Cl        1 <0>        -0.1770
      2 Cl2        -0.5858    2.4205    0.1450 Cl        1 <0>        -0.1770
      3 O1         -0.5078   -0.4890   -0.7803 O.3       1 <0>        -0.3630
      4 N1          2.5409    0.1315    1.0594 N.pl3     1 <0>        -0.7940
      5 N2          2.0740    0.2088   -1.1031 N.pl3     1 <0>        -0.7940
      6 C1          0.3421   -0.7558    0.3567 C.3       1 <0>         0.3850
      7 C2          1.6675   -0.1333    0.1050 C.cat     1 <0>         0.6040
      8 C3          3.7378    0.7526    0.4716 C.3       1 <0>         0.4900
      9 C4          3.4101    0.8079   -1.0298 C.3       1 <0>         0.4900
     10 C5          0.5100   -2.2658    0.4945 C.3       1 <0>         0.0000
     11 C6         -1.7411    0.0014   -0.4264 C.ar      1 <0>         0.0820
     12 C7         -2.8707   -0.8111   -0.6034 C.ar      1 <0>         0.1770
     13 C8         -1.9134    1.3214    0.0159 C.ar      1 <0>         0.1770
     14 C9         -4.1447   -0.3328   -0.2817 C.ar      1 <0>        -0.1500
     15 C10        -3.1889    1.7963    0.3370 C.ar      1 <0>        -0.1500
     16 C11        -4.3023    0.9672    0.1967 C.ar      1 <0>        -0.1500
     17 H1          2.3524   -0.0753    2.0344 H         1 <0>         0.4500
     18 H2          1.4548    0.0667   -1.8968 H         1 <0>         0.4500
     19 H3         -0.0745   -0.3569    1.2917 H         1 <0>         0.0000
     20 H4          4.6113    0.1280    0.6787 H         1 <0>         0.0000
     21 H5          3.8791    1.7502    0.8983 H         1 <0>         0.0000
     22 H6          3.3724    1.8352   -1.4027 H         1 <0>         0.0000
     23 H7          4.1112    0.2167   -1.6253 H         1 <0>         0.0000
     24 H8          0.8687   -2.7072   -0.4422 H         1 <0>         0.0000
     25 H9         -0.4455   -2.7418    0.7315 H         1 <0>         0.0000
     26 H10         1.2237   -2.5145    1.2870 H         1 <0>         0.0000
     27 H11        -5.0223   -0.9642   -0.4085 H         1 <0>         0.1500
     28 H12        -3.3269    2.8176    0.6860 H         1 <0>         0.1500
     29 H13        -5.2944    1.3392    0.4430 H         1 <0>         0.1500
@<TRIPOS>BOND
     1    1   12 1
     2    2   13 1
     3    3    6 1
     4    3   11 1
     5    4    7 1
     6    4    8 1
     7    4   17 1
     8    5    7 1
     9    5    9 1
    10    5   18 1
    11    6    7 1
    12    6   10 1
    13    6   19 1
    14    8    9 1
    15    8   20 1
    16    8   21 1
    17    9   22 1
    18    9   23 1
    19   10   24 1
    20   10   25 1
    21   10   26 1
    22   11   12 ar
    23   11   13 ar
    24   12   14 ar
    25   13   15 ar
    26   14   16 ar
    27   14   27 1
    28   15   16 ar
    29   15   28 1
    30   16   29 1
