@<TRIPOS>MOLECULE
DB04398
   11    10     0     0     0
SMALL
USER_CHARGES

@<TRIPOS>ATOM
      1 C1         -1.2838   -0.0472    0.1924 C.3       1 <0>         0.0000
      2 C2          0.0633    0.2239   -0.4423 C.3       1 <0>         0.1740
      3 C3          1.1445   -0.7736    0.0395 C.2       1 <0>         0.9060
      4 O1          0.5050    1.5462   -0.0666 O.3       1 <0>        -0.6800
      5 O2          2.1596   -0.1686    0.5165 O.co2     1 <0>        -0.9000
      6 O3          0.9021   -2.0000   -0.0995 O.co2     1 <0>        -0.9000
      7 H1         -1.6792   -1.0229   -0.1058 H         1 <0>         0.0000
      8 H2         -2.0060    0.7253   -0.0923 H         1 <0>         0.0000
      9 H3         -1.2121   -0.0264    1.2858 H         1 <0>         0.0000
     10 H4         -0.0008    0.1908   -1.5348 H         1 <0>         0.0000
     11 H5          1.4074    1.3526    0.3071 H         1 <0>         0.4000
@<TRIPOS>BOND
     1    1    2 1
     2    1    7 1
     3    1    8 1
     4    1    9 1
     5    2    3 1
     6    2    4 1
     7    2   10 1
     8    3    5 2
     9    3    6 1
    10    4   11 1
