@<TRIPOS>MOLECULE
DB04552
   28    29     0     0     0
SMALL
USER_CHARGES

@<TRIPOS>ATOM
      1 F1          5.2514    0.8172   -1.1103 F         1 <0>        -0.3400
      2 F2          5.2649    0.8437    1.0607 F         1 <0>        -0.3400
      3 F3          4.1654    2.3643   -0.0371 F         1 <0>        -0.3400
      4 O1         -3.5215    3.1850    0.0319 O.co2     1 <0>        -0.9000
      5 O2         -1.2989    2.7028    0.0229 O.co2     1 <0>        -0.9000
      6 N1         -0.4518    0.4543    0.0083 N.pl3     1 <0>        -0.6000
      7 N2         -2.0345   -1.3699   -0.0186 N.ar      1 <0>        -0.6200
      8 C1          0.8103   -0.1514    0.0121 C.ar      1 <0>         0.1000
      9 C2          3.2499    0.1416   -0.0038 C.ar      1 <0>        -0.1440
     10 C3          1.9493    0.6736   -0.0037 C.ar      1 <0>        -0.1500
     11 C4         -1.7816   -0.0366   -0.0020 C.ar      1 <0>         0.4100
     12 C5          1.0099   -1.5345    0.0257 C.ar      1 <0>        -0.1500
     13 C6          3.4106   -1.2491    0.0112 C.ar      1 <0>        -0.1500
     14 C7         -2.8305    0.9063    0.0056 C.ar      1 <0>        -0.1790
     15 C8          2.2952   -2.0818    0.0256 C.ar      1 <0>        -0.1500
     16 C9          4.4592    1.0348   -0.0230 C.3       1 <0>         1.1640
     17 C10        -4.1518    0.4386   -0.0029 C.ar      1 <0>        -0.1500
     18 C11        -4.4043   -0.9244   -0.0193 C.ar      1 <0>        -0.1500
     19 C12        -3.3209   -1.7792   -0.0262 C.ar      1 <0>         0.1600
     20 C13        -2.5375    2.3844    0.0214 C.2       1 <0>         0.9790
     21 H1         -0.4753    1.5059    0.0140 H         1 <0>         0.4000
     22 H2          1.8141    1.7557   -0.0153 H         1 <0>         0.1500
     23 H3          0.1646   -2.2154    0.0372 H         1 <0>         0.1500
     24 H4          4.4052   -1.6885    0.0114 H         1 <0>         0.1500
     25 H5          2.4189   -3.1615    0.0374 H         1 <0>         0.1500
     26 H6         -4.9796    1.1459    0.0021 H         1 <0>         0.1500
     27 H7         -5.4187   -1.3064   -0.0260 H         1 <0>         0.1500
     28 H8         -3.4620   -2.8555   -0.0396 H         1 <0>         0.1500
@<TRIPOS>BOND
     1    1   16 1
     2    2   16 1
     3    3   16 1
     4    4   20 2
     5    5   20 1
     6    6    8 1
     7    6   11 1
     8    6   21 1
     9    7   11 ar
    10    7   19 ar
    11    8   10 ar
    12    8   12 ar
    13    9   10 ar
    14    9   13 ar
    15    9   16 1
    16   10   22 1
    17   11   14 ar
    18   12   15 ar
    19   12   23 1
    20   13   15 ar
    21   13   24 1
    22   14   17 ar
    23   14   20 1
    24   15   25 1
    25   17   18 ar
    26   17   26 1
    27   18   19 ar
    28   18   27 1
    29   19   28 1
