@<TRIPOS>MOLECULE
DB04572
   23    25     0     0     0
SMALL
USER_CHARGES

@<TRIPOS>ATOM
      1 S1          0.0003   -0.0002   -2.1283 S.2       1 <0>        -0.6770
      2 P1          0.0006    0.0003   -0.1404 P.3       1 <0>         1.4810
      3 N1         -0.3872   -1.4370    0.6190 N.pl3     1 <0>        -0.5840
      4 C1          0.0457   -2.7198    0.0901 C.3       1 <0>        -0.0420
      5 C2         -1.4110   -2.3250    0.0930 C.3       1 <0>        -0.0420
      6 N2         -1.0512    1.0544    0.6185 N.pl3     1 <0>        -0.5840
      7 C3         -2.3788    1.3198    0.0910 C.3       1 <0>        -0.0420
      8 C4         -1.3081    2.3847    0.0927 C.3       1 <0>        -0.0420
      9 N3          1.4387    0.3836    0.6192 N.pl3     1 <0>        -0.5840
     10 C5          2.3334    1.4002    0.0906 C.3       1 <0>        -0.0420
     11 C6          2.7198   -0.0594    0.0940 C.3       1 <0>        -0.0420
     12 H1          0.3794   -3.4424    0.8244 H         1 <0>         0.1000
     13 H2          0.5742   -2.7419   -0.8537 H         1 <0>         0.1000
     14 H3         -1.8817   -2.0746   -0.8476 H         1 <0>         0.1000
     15 H4         -2.0610   -2.7809    0.8296 H         1 <0>         0.1000
     16 H5         -3.1702    1.3926    0.8264 H         1 <0>         0.1000
     17 H6         -2.6626    0.8715   -0.8512 H         1 <0>         0.1000
     18 H7         -0.8587    2.6667   -0.8489 H         1 <0>         0.1000
     19 H8         -1.3784    3.1759    0.8282 H         1 <0>         0.1000
     20 H9          2.7927    2.0500    0.8238 H         1 <0>         0.1000
     21 H10         2.0873    1.8691   -0.8532 H         1 <0>         0.1000
     22 H11         2.7378   -0.5930   -0.8477 H         1 <0>         0.1000
     23 H12         3.4389   -0.3946    0.8307 H         1 <0>         0.1000
@<TRIPOS>BOND
     1    1    2 2
     2    2    3 1
     3    2    6 1
     4    2    9 1
     5    3    4 1
     6    3    5 1
     7    4    5 1
     8    4   12 1
     9    4   13 1
    10    5   14 1
    11    5   15 1
    12    6    7 1
    13    6    8 1
    14    7    8 1
    15    7   16 1
    16    7   17 1
    17    8   18 1
    18    8   19 1
    19    9   10 1
    20    9   11 1
    21   10   11 1
    22   10   20 1
    23   10   21 1
    24   11   22 1
    25   11   23 1
