@<TRIPOS>MOLECULE
DB05245
   26    27     0     0     0
SMALL
USER_CHARGES

@<TRIPOS>ATOM
      1 S1         -0.4397   -2.2853   -0.7774 S.o2      1 <0>         0.8490
      2 O1         -0.6585   -2.0839   -2.2102 O.2       1 <0>        -0.6500
      3 O2          0.2129   -3.5597   -0.4678 O.2       1 <0>        -0.6500
      4 N1         -1.6683   -1.9579    0.1755 N.2       1 <0>        -0.2880
      5 N2          4.0029    1.5090    0.5463 N.pl3     1 <0>        -0.9000
      6 N3         -1.9784    0.1990   -0.6824 N.ar      1 <0>        -0.6200
      7 N4         -3.3108   -0.6835    1.0769 N.ar      1 <0>        -0.6200
      8 C1          0.8873   -1.1163   -0.3843 C.ar      1 <0>        -0.0090
      9 C2          1.2072   -0.0901   -1.2705 C.ar      1 <0>        -0.1500
     10 C3          1.6001   -1.2882    0.8026 C.ar      1 <0>        -0.1500
     11 C4          2.9714    0.6383    0.2371 C.ar      1 <0>         0.1000
     12 C5          2.2468    0.7863   -0.9524 C.ar      1 <0>        -0.1500
     13 C6          2.6384   -0.4055    1.1089 C.ar      1 <0>        -0.1500
     14 C7         -2.3195   -0.7852    0.1686 C.ar      1 <0>         0.3680
     15 C8         -2.6885    1.3410   -0.6088 C.ar      1 <0>         0.1600
     16 C9         -3.9882    0.4815    1.1076 C.ar      1 <0>         0.1600
     17 C10        -3.7187    1.5416    0.2768 C.ar      1 <0>        -0.1500
     18 H1          4.5280    1.4017    1.4026 H         1 <0>         0.4000
     19 H2          4.2448    2.2619   -0.0826 H         1 <0>         0.4000
     20 H3          0.6473    0.0375   -2.1926 H         1 <0>         0.1500
     21 H4          1.3535   -2.1001    1.4806 H         1 <0>         0.1500
     22 H5          2.4873    1.5891   -1.6440 H         1 <0>         0.1500
     23 H6          3.1886   -0.5429    2.0346 H         1 <0>         0.1500
     24 H7         -2.3900    2.1125   -1.3114 H         1 <0>         0.1500
     25 H8         -4.7797    0.5333    1.8480 H         1 <0>         0.1500
     26 H9         -4.2762    2.4659    0.3181 H         1 <0>         0.1500
@<TRIPOS>BOND
     1    1    2 2
     2    1    3 2
     3    1    4 2
     4    1    8 1
     5    4   14 1
     6    5   11 1
     7    5   18 1
     8    5   19 1
     9    6   14 ar
    10    6   15 ar
    11    7   14 ar
    12    7   16 ar
    13    8    9 ar
    14    8   10 ar
    15    9   12 ar
    16    9   20 1
    17   10   13 ar
    18   10   21 1
    19   11   12 ar
    20   11   13 ar
    21   12   22 1
    22   13   23 1
    23   15   17 ar
    24   15   24 1
    25   16   17 ar
    26   16   25 1
    27   17   26 1
