@<TRIPOS>MOLECULE
DB05246
   28    29     0     0     0
SMALL
USER_CHARGES

@<TRIPOS>ATOM
      1 O1          1.3250    0.3193   -2.0674 O.2       1 <0>        -0.5700
      2 O2          2.7976    0.1431    2.2677 O.2       1 <0>        -0.5700
      3 N1          2.3078    0.4339    0.0229 N.am      1 <0>        -0.4200
      4 C1          0.2928   -0.7776   -0.1439 C.3       1 <0>         0.2040
      5 C2          0.8658   -0.9033    1.2806 C.3       1 <0>         0.0610
      6 C3          1.3485    0.0468   -0.8741 C.2       1 <0>         0.5690
      7 C4         -1.0752   -0.0870   -0.0976 C.ar      1 <0>        -0.1440
      8 C5          0.2648   -2.1520   -0.8394 C.3       1 <0>         0.0000
      9 C6          2.0997   -0.0503    1.2829 C.2       1 <0>         0.5690
     10 C7         -1.1901    1.3165   -0.1421 C.ar      1 <0>        -0.1500
     11 C8         -2.2602   -0.8297    0.0568 C.ar      1 <0>        -0.1500
     12 C9          3.4384    1.2662   -0.3237 C.3       1 <0>         0.3000
     13 C10        -2.4362    1.9450   -0.0669 C.ar      1 <0>        -0.1500
     14 C11        -3.5071   -0.1997    0.1324 C.ar      1 <0>        -0.1500
     15 C12        -3.5951    1.1869    0.0669 C.ar      1 <0>        -0.1500
     16 H1          1.1610   -1.9309    1.5233 H         1 <0>         0.0000
     17 H2          0.1845   -0.5424    2.0588 H         1 <0>         0.0000
     18 H3          1.2790   -2.5445   -0.9860 H         1 <0>         0.0000
     19 H4         -0.2019   -2.0880   -1.8291 H         1 <0>         0.0000
     20 H5         -0.2840   -2.8985   -0.2548 H         1 <0>         0.0000
     21 H6         -0.3126    1.9526   -0.2390 H         1 <0>         0.1500
     22 H7         -2.2386   -1.9138    0.1300 H         1 <0>         0.1500
     23 H8          4.3102    0.6193   -0.4577 H         1 <0>         0.0000
     24 H9          3.6473    1.9661    0.4910 H         1 <0>         0.0000
     25 H10         3.2497    1.8134   -1.2508 H         1 <0>         0.0000
     26 H11        -2.4997    3.0293   -0.1119 H         1 <0>         0.1500
     27 H12        -4.4079   -0.7961    0.2456 H         1 <0>         0.1500
     28 H13        -4.5632    1.6756    0.1252 H         1 <0>         0.1500
@<TRIPOS>BOND
     1    1    6 2
     2    2    9 2
     3    3    6 am
     4    3    9 am
     5    3   12 1
     6    4    5 1
     7    4    6 1
     8    4    7 1
     9    4    8 1
    10    5    9 1
    11    5   16 1
    12    5   17 1
    13    7   10 ar
    14    7   11 ar
    15    8   18 1
    16    8   19 1
    17    8   20 1
    18   10   13 ar
    19   10   21 1
    20   11   14 ar
    21   11   22 1
    22   12   23 1
    23   12   24 1
    24   12   25 1
    25   13   15 ar
    26   13   26 1
    27   14   15 ar
    28   14   27 1
    29   15   28 1
