@<TRIPOS>MOLECULE
DB05016
   29    31     0     0     0
SMALL
USER_CHARGES

@<TRIPOS>ATOM
      1 F1          2.5420    2.1250    0.0142 F         1 <0>        -0.1900
      2 O1          1.0623   -1.7967   -0.0467 O.3       1 <0>        -0.0190
      3 O2         -6.7782   -0.7630    0.0358 O.co2     1 <0>        -0.9000
      4 O3         -5.3700   -2.5342    0.0558 O.co2     1 <0>        -0.9000
      5 N1          0.4389    0.3440   -0.0115 N.2       1 <0>        -0.5650
      6 N2         -0.3296   -1.8020   -0.0501 N.2       1 <0>        -0.4100
      7 C1         -2.0128    0.0224   -0.0172 C.ar      1 <0>         0.0540
      8 C2         -0.6512   -0.4993   -0.0271 C.2       1 <0>         0.4620
      9 C3          2.8896   -0.2332   -0.0081 C.ar      1 <0>         0.0530
     10 C4          1.4555   -0.4875   -0.0211 C.2       1 <0>         0.4250
     11 C5         -3.1198   -0.8421    0.0024 C.ar      1 <0>        -0.1500
     12 C6         -4.4375   -0.3461    0.0137 C.ar      1 <0>        -0.1790
     13 C7         -2.2383    1.4065   -0.0267 C.ar      1 <0>        -0.1500
     14 C8         -4.6277    1.0442    0.0033 C.ar      1 <0>        -0.1500
     15 C9         -3.5379    1.9139   -0.0170 C.ar      1 <0>        -0.1500
     16 C10         3.3810    1.0785    0.0109 C.ar      1 <0>         0.1900
     17 C11         3.8244   -1.2829   -0.0112 C.ar      1 <0>        -0.1500
     18 C12         4.7503    1.3454    0.0263 C.ar      1 <0>        -0.1500
     19 C13         5.1996   -1.0203    0.0048 C.ar      1 <0>        -0.1500
     20 C14         5.6619    0.2936    0.0236 C.ar      1 <0>        -0.1500
     21 C15        -5.6208   -1.2882    0.0368 C.2       1 <0>         0.9790
     22 H1         -2.9721   -1.9222    0.0112 H         1 <0>         0.1500
     23 H2         -1.4027    2.1023   -0.0420 H         1 <0>         0.1500
     24 H3         -5.6383    1.4497    0.0110 H         1 <0>         0.1500
     25 H4         -3.7028    2.9875   -0.0258 H         1 <0>         0.1500
     26 H5          3.5003   -2.3215   -0.0252 H         1 <0>         0.1500
     27 H6          5.0956    2.3752    0.0415 H         1 <0>         0.1500
     28 H7          5.9082   -1.8453    0.0021 H         1 <0>         0.1500
     29 H8          6.7300    0.4964    0.0363 H         1 <0>         0.1500
@<TRIPOS>BOND
     1    1   16 1
     2    2    6 1
     3    2   10 1
     4    3   21 2
     5    4   21 1
     6    5    8 1
     7    5   10 2
     8    6    8 2
     9    7    8 1
    10    7   11 ar
    11    7   13 ar
    12    9   10 1
    13    9   16 ar
    14    9   17 ar
    15   11   12 ar
    16   11   22 1
    17   12   14 ar
    18   12   21 1
    19   13   15 ar
    20   13   23 1
    21   14   15 ar
    22   14   24 1
    23   15   25 1
    24   16   18 ar
    25   17   19 ar
    26   17   26 1
    27   18   20 ar
    28   18   27 1
    29   19   20 ar
    30   19   28 1
    31   20   29 1
