@<TRIPOS>MOLECULE
DB05260
    4     3     0     0     0
SMALL
USER_CHARGES

@<TRIPOS>ATOM
      1 O1         -0.3390    1.1948    0.0000 O.2       1 <0>        -0.6870
      2 O2         -0.8657   -0.8907    0.0000 O.2       1 <0>        -0.6870
      3 O3          1.2045   -0.3039    0.0000 O.3       1 <0>        -0.6870
      4 N1          0.0002   -0.0003    0.0000 N.pl3     1 <0>         1.0600
@<TRIPOS>BOND
     1    1    4 2
     2    2    4 2
     3    3    4 1
