@<TRIPOS>MOLECULE
DB05389
    3     2     0     0     0
SMALL
USER_CHARGES

@<TRIPOS>ATOM
      1 Cl1        -0.0000   -0.7873    0.0000 Cl        1 <0>        -0.3600
      2 O1          1.2230    0.3937    0.0000 O.3       1 <0>        -0.3200
      3 O2         -1.2230    0.3937    0.0000 O.3       1 <0>        -0.3200
@<TRIPOS>BOND
     1    1    2 1
     2    1    3 1
