@<TRIPOS>MOLECULE
DB06707
   27    27     0     0     0
SMALL
USER_CHARGES

@<TRIPOS>ATOM
      1 C1          3.4892   -0.3371   -0.0245 C.3       1 <0>         0.0000
      2 C2          2.0005   -0.3079   -0.3588 C.3       1 <0>         0.5030
      3 C3          1.1235   -0.0501    0.8953 C.3       1 <0>         0.4240
      4 C4         -0.3509    0.0845    0.5743 C.ar      1 <0>        -0.1440
      5 C5         -1.0777   -0.9990    0.0513 C.ar      1 <0>        -0.1500
      6 C6         -2.4284   -0.8510   -0.2443 C.ar      1 <0>         0.0820
      7 C7         -3.0639    0.3703   -0.0564 C.ar      1 <0>         0.0820
      8 C8         -2.3688    1.4450    0.4808 C.ar      1 <0>        -0.1500
      9 C9         -1.0150    1.3043    0.7961 C.ar      1 <0>        -0.1500
     10 O1         -4.3683    0.5502   -0.4118 O.3       1 <0>        -0.5320
     11 O2         -3.1169   -1.9362   -0.7025 O.3       1 <0>        -0.5320
     12 O3          1.3032   -1.1170    1.8257 O.3       1 <0>        -0.6800
     13 N1          1.7862    0.7522   -1.3967 N.4       1 <0>        -0.8530
     14 H1          3.7156   -1.1402    0.6836 H         1 <0>         0.0000
     15 H2          3.8170    0.6092    0.4203 H         1 <0>         0.0000
     16 H3          4.0896   -0.5115   -0.9243 H         1 <0>         0.0000
     17 H4          1.7283   -1.2567   -0.8358 H         1 <0>         0.0000
     18 H5          1.4731    0.8614    1.3959 H         1 <0>         0.0000
     19 H6         -0.6065   -1.9673   -0.1015 H         1 <0>         0.1500
     20 H7         -2.8749    2.3937    0.6429 H         1 <0>         0.1500
     21 H8         -0.4883    2.1575    1.2194 H         1 <0>         0.1500
     22 H9         -4.5485   -0.0450   -1.1614 H         1 <0>         0.4500
     23 H10        -3.9668   -1.9531   -0.2247 H         1 <0>         0.4500
     24 H11         0.5600   -1.0995    2.4560 H         1 <0>         0.4000
     25 H12         2.0440    1.6896   -1.0612 H         1 <0>         0.4500
     26 H13         0.8003    0.7895   -1.6971 H         1 <0>         0.4500
     27 H14         2.3446    0.5642   -2.2406 H         1 <0>         0.4500
@<TRIPOS>BOND
     1    1    2 1
     2    1   14 1
     3    1   15 1
     4    1   16 1
     5    2    3 1
     6    2   13 1
     7    2   17 1
     8    3    4 1
     9    3   12 1
    10    3   18 1
    11    4    5 ar
    12    4    9 ar
    13    5    6 ar
    14    5   19 1
    15    6    7 ar
    16    6   11 1
    17    7    8 ar
    18    7   10 1
    19    8    9 ar
    20    8   20 1
    21    9   21 1
    22   10   22 1
    23   11   23 1
    24   12   24 1
    25   13   25 1
    26   13   26 1
    27   13   27 1
