@<TRIPOS>MOLECULE
DB06255
   30    30     0     0     0
SMALL
USER_CHARGES

@<TRIPOS>ATOM
      1 P1          3.0358    1.5881   -0.4630 P.3       1 <0>         1.1000
      2 P2          2.4415   -1.9647   -0.5167 P.3       1 <0>         1.1000
      3 O1          2.6743    1.6537   -1.9337 O.2       1 <0>        -1.0330
      4 O2          4.4945    1.6860   -0.0519 O.3       1 <0>        -1.0330
      5 O3          2.0658   -2.8173    0.7012 O.2       1 <0>        -1.0330
      6 O4          3.8765   -2.1597   -0.9854 O.3       1 <0>        -1.0330
      7 O5          1.3745   -1.9700   -1.6084 O.3       1 <0>        -1.0330
      8 O6          2.0294    2.3276    0.4736 O.3       1 <0>        -1.0330
      9 N1          1.0276    0.3264    0.9041 N.4       1 <0>        -0.9060
     10 C1         -0.1828    0.1273    0.0741 C.3       1 <0>         0.5030
     11 C2         -1.0784    1.3677    0.2174 C.3       1 <0>         0.0000
     12 C3         -0.9341   -1.1187    0.5536 C.3       1 <0>         0.0000
     13 C4         -2.2497   -1.3009   -0.2027 C.3       1 <0>         0.0000
     14 C5         -2.3973    1.1955   -0.5336 C.3       1 <0>         0.0000
     15 C6         -3.1354   -0.0639   -0.0925 C.3       1 <0>         0.0000
     16 C7          2.3646   -0.2181    0.2435 C.3       1 <0>         0.5030
     17 H1          0.9853    0.0322    1.8757 H         1 <0>         0.4500
     18 H2          1.3347    1.4079    0.8608 H         1 <0>         0.4500
     19 H3          0.1259    0.0452   -0.9723 H         1 <0>         0.0000
     20 H4         -0.5666    2.2550   -0.1740 H         1 <0>         0.0000
     21 H5         -1.2881    1.5635    1.2776 H         1 <0>         0.0000
     22 H6         -1.1493   -1.0390    1.6276 H         1 <0>         0.0000
     23 H7         -0.3315   -2.0193    0.4258 H         1 <0>         0.0000
     24 H8         -2.7841   -2.1716    0.1922 H         1 <0>         0.0000
     25 H9         -2.0377   -1.5073   -1.2592 H         1 <0>         0.0000
     26 H10        -2.1985    1.1432   -1.6110 H         1 <0>         0.0000
     27 H11        -3.0328    2.0720   -0.3690 H         1 <0>         0.0000
     28 H12        -3.4693    0.0533    0.9453 H         1 <0>         0.0000
     29 H13        -4.0358   -0.1985   -0.7038 H         1 <0>         0.0000
     30 H14         3.0411   -0.2958    1.1047 H         1 <0>         0.0000
@<TRIPOS>BOND
     1    1    3 2
     2    1    4 1
     3    1    8 1
     4    1   16 1
     5    2    5 2
     6    2    6 1
     7    2    7 1
     8    2   16 1
     9    9   10 1
    10    9   16 1
    11    9   17 1
    12    9   18 1
    13   10   11 1
    14   10   12 1
    15   10   19 1
    16   11   14 1
    17   11   20 1
    18   11   21 1
    19   12   13 1
    20   12   22 1
    21   12   23 1
    22   13   15 1
    23   13   24 1
    24   13   25 1
    25   14   15 1
    26   14   26 1
    27   14   27 1
    28   15   28 1
    29   15   29 1
    30   16   30 1
