@<TRIPOS>MOLECULE
DB06690
    3     2     0     0     0
SMALL
USER_CHARGES

@<TRIPOS>ATOM
      1 O1          1.1974   -0.0002    0.0000 O.2       1 <0>        -0.4670
      2 N1         -0.0553    0.0005    0.0000 N.1       1 <0>         0.9590
      3 N2         -1.1421   -0.0002    0.0000 N.1       1 <0>        -0.4920
@<TRIPOS>BOND
     1    1    2 2
     2    2    3 3
