@<TRIPOS>MOLECULE
DB06724
    4     3     0     0     0
SMALL
USER_CHARGES

@<TRIPOS>ATOM
      1 O1          0.5107    1.1826    0.0000 O.co2     1 <0>        -0.9830
      2 O2         -1.2797   -0.1491    0.0000 O.co2     1 <0>        -0.9830
      3 C1          0.0000   -0.0000    0.0000 C.2       1 <0>         0.9500
      4 O3          0.7690   -1.0335    0.0000 O.co2     1 <0>        -0.9830
@<TRIPOS>BOND
     1    1    3 2
     2    2    3 1
     3    3    4 1
