@<TRIPOS>MOLECULE
DB06783
   13    12     0     0     0
SMALL
USER_CHARGES

@<TRIPOS>ATOM
      1 N1          1.7347    1.7548    1.8510 N.1       1 <0>        -0.5570
      2 C1         -1.0811   -1.0931   -1.1542 C.1       1 <0>         0.3770
      3 Fe1        -0.0001    0.0005    0.0007 Fe        1 <0>        -2.9200
      4 C2          1.4149   -0.0221   -1.3022 C.1       1 <0>         0.3770
      5 C3          1.0816    1.0951    1.1549 C.1       1 <0>         0.3770
      6 C4         -0.7284    1.5814   -0.8172 C.1       1 <0>         0.3770
      7 C5         -1.4149    0.0214    1.3042 C.1       1 <0>         0.3770
      8 N2         -1.7335   -1.7531   -1.8515 N.1       1 <0>        -0.5570
      9 N3         -2.2694    0.0351    2.0894 N.1       1 <0>        -0.5570
     10 N4         -1.1681    2.5349   -1.3110 N.1       1 <0>        -0.5570
     11 N5          2.2686   -0.0352   -2.0872 N.1       1 <0>        -0.5570
     12 N6          1.1679   -2.5377    1.3072 N.1       1 <0>        -0.5570
     13 C6          0.7278   -1.5820    0.8161 C.1       1 <0>         0.3770
@<TRIPOS>BOND
     1    1    5 3
     2    2    3 1
     3    2    8 3
     4    3    4 1
     5    3    5 1
     6    3    6 1
     7    3    7 1
     8    3   13 1
     9    4   11 3
    10    6   10 3
    11    7    9 3
    12   12   13 3
