@<TRIPOS>MOLECULE
DB06201
   25    26     0     0     0
SMALL
USER_CHARGES

@<TRIPOS>ATOM
      1 F1          1.8128   -2.4597   -0.4695 F         1 <0>        -0.1900
      2 F2          1.5379    1.7870    1.5960 F         1 <0>        -0.1900
      3 O1         -3.7898    2.0463   -0.1807 O.2       1 <0>        -0.5700
      4 N1         -0.7538   -0.7163    0.8921 N.pl3     1 <0>         0.3140
      5 N2         -1.3844   -1.7751    0.3524 N.2       1 <0>        -0.4180
      6 N3         -2.5219   -1.3363   -0.1687 N.2       1 <0>        -0.2270
      7 N4         -4.6738    0.1612   -1.0857 N.am      1 <0>        -0.8000
      8 C1          0.5484   -0.8685    1.5132 C.3       1 <0>         0.3990
      9 C2          1.6337   -0.3613    0.6105 C.ar      1 <0>        -0.1440
     10 C3         -1.4906    0.4219    0.7623 C.2       1 <0>        -0.3020
     11 C4          2.2044   -1.1819   -0.3628 C.ar      1 <0>         0.1900
     12 C5          2.0706    0.9627    0.6836 C.ar      1 <0>         0.1900
     13 C6         -2.6068    0.0166    0.0625 C.2       1 <0>         0.1410
     14 C7          3.1788   -0.7048   -1.2373 C.ar      1 <0>        -0.1500
     15 C8          3.0460    1.4578   -0.1804 C.ar      1 <0>        -0.1500
     16 C9          3.6009    0.6204   -1.1469 C.ar      1 <0>        -0.1500
     17 C10        -3.7111    0.8402   -0.3886 C.2       1 <0>         0.7160
     18 H1         -5.4733    0.6662   -1.4419 H         1 <0>         0.3700
     19 H2         -4.6016   -0.8370   -1.2513 H         1 <0>         0.3700
     20 H3          0.6968   -1.9266    1.7567 H         1 <0>         0.0000
     21 H4          0.5279   -0.3213    2.4629 H         1 <0>         0.0000
     22 H5         -1.1703    1.3847    1.1350 H         1 <0>         0.1500
     23 H6          3.5992   -1.3690   -1.9875 H         1 <0>         0.1500
     24 H7          3.3630    2.4927   -0.0980 H         1 <0>         0.1500
     25 H8          4.3570    1.0003   -1.8278 H         1 <0>         0.1500
@<TRIPOS>BOND
     1    1   11 1
     2    2   12 1
     3    3   17 2
     4    4    5 1
     5    4    8 1
     6    4   10 1
     7    5    6 2
     8    6   13 1
     9    7   17 am
    10    7   18 1
    11    7   19 1
    12    8    9 1
    13    8   20 1
    14    8   21 1
    15    9   11 ar
    16    9   12 ar
    17   10   13 2
    18   10   22 1
    19   11   14 ar
    20   12   15 ar
    21   13   17 1
    22   14   16 ar
    23   14   23 1
    24   15   16 ar
    25   15   24 1
    26   16   25 1
