@<TRIPOS>MOLECULE
DB06775
   21    20     0     0     0
SMALL
USER_CHARGES

@<TRIPOS>ATOM
      1 C1         -0.0071    2.2014   -0.0292 C.2       1 <0>         0.9060
      2 O1         -0.8586    2.8139   -0.7321 O.co2     1 <0>        -0.9000
      3 C2         -2.1981   -0.1442   -0.2560 C.3       1 <0>        -0.1060
      4 C3         -0.8048   -0.1705    0.3722 C.3       1 <0>         0.0000
      5 C4          0.2215    0.6970   -0.3734 C.3       1 <0>         0.1940
      6 N1          1.5849    0.3050    0.0294 N.am      1 <0>        -0.7300
      7 O2          1.8907   -1.5325   -1.3279 O.2       1 <0>        -0.5700
      8 C5          2.2763   -0.7595   -0.4601 C.2       1 <0>         0.6900
      9 N2          3.4972   -0.9006    0.1264 N.am      1 <0>        -0.8000
     10 C6         -3.1916   -1.1382    0.3565 C.2       1 <0>         0.9060
     11 O3         -2.9192   -1.5779    1.5085 O.co2     1 <0>        -0.9000
     12 O4          0.7462    2.6393    0.8975 O.co2     1 <0>        -0.9000
     13 O5         -4.1903   -1.3990   -0.3765 O.co2     1 <0>        -0.9000
     14 H1         -2.1171   -0.3651   -1.3278 H         1 <0>         0.0000
     15 H2         -2.6387    0.8537   -0.1592 H         1 <0>         0.0000
     16 H3         -0.4569   -1.2116    0.3921 H         1 <0>         0.0000
     17 H4         -0.8679    0.1457    1.4222 H         1 <0>         0.0000
     18 H5          0.1456    0.5447   -1.4563 H         1 <0>         0.0000
     19 H6          1.9821    0.9322    0.7233 H         1 <0>         0.3700
     20 H7          4.0858   -1.6642   -0.1730 H         1 <0>         0.3700
     21 H8          3.8200   -0.2697    0.8434 H         1 <0>         0.3700
@<TRIPOS>BOND
     1    1    2 2
     2    1    5 1
     3    1   12 1
     4    3    4 1
     5    3   10 1
     6    3   14 1
     7    3   15 1
     8    4    5 1
     9    4   16 1
    10    4   17 1
    11    5    6 1
    12    5   18 1
    13    6    8 am
    14    6   19 1
    15    7    8 2
    16    8    9 am
    17    9   20 1
    18    9   21 1
    19   10   11 2
    20   10   13 1
