@<TRIPOS>MOLECULE
DB06782
   14    13     0     0     0
SMALL
USER_CHARGES

@<TRIPOS>ATOM
      1 C1          1.3341   -0.5318   -0.1261 C.3       1 <0>         0.2800
      2 C2         -1.1815   -0.6849   -0.1964 C.3       1 <0>         0.2300
      3 C3          0.0193    0.0377    0.4254 C.3       1 <0>         0.2300
      4 O1          2.4576    0.0296    0.5450 O.3       1 <0>        -0.6800
      5 S1         -2.7647   -0.2535    0.5951 S.3       1 <0>        -0.4100
      6 S2         -0.0230    1.8502    0.0905 S.3       1 <0>        -0.4100
      7 H1          1.4429   -0.3520   -1.2012 H         1 <0>         0.0000
      8 H2          1.3743   -1.6142    0.0326 H         1 <0>         0.0000
      9 H3         -1.0612   -1.7680   -0.0866 H         1 <0>         0.0000
     10 H4         -1.2588   -0.4759   -1.2693 H         1 <0>         0.0000
     11 H5          0.0190   -0.0774    1.5158 H         1 <0>         0.0000
     12 H6          2.3480    0.9982    0.5246 H         1 <0>         0.4000
     13 H7         -2.6715    1.0713    0.4001 H         1 <0>         0.1800
     14 H8         -0.0345    1.7707   -1.2496 H         1 <0>         0.1800
@<TRIPOS>BOND
     1    1    3 1
     2    1    4 1
     3    1    7 1
     4    1    8 1
     5    2    3 1
     6    2    5 1
     7    2    9 1
     8    2   10 1
     9    3    6 1
    10    3   11 1
    11    4   12 1
    12    5   13 1
    13    6   14 1
