@<TRIPOS>MOLECULE
DB06770
   16    16     0     0     0
SMALL
USER_CHARGES

@<TRIPOS>ATOM
      1 O1          2.6462    0.7495   -0.5324 O.3       1 <0>        -0.6800
      2 C1          0.4715   -0.1249    0.0444 C.ar      1 <0>        -0.1440
      3 C2          1.9643   -0.3006    0.1405 C.3       1 <0>         0.4240
      4 C3         -0.3657   -1.2490   -0.0063 C.ar      1 <0>        -0.1500
      5 C4         -0.1140    1.1498    0.0673 C.ar      1 <0>        -0.1500
      6 C5         -1.7529   -1.1001   -0.0571 C.ar      1 <0>        -0.1500
      7 C6         -1.5012    1.2976    0.0156 C.ar      1 <0>        -0.1500
      8 C7         -2.3205    0.1724   -0.0481 C.ar      1 <0>        -0.1500
      9 H1          3.5974    0.5685   -0.4443 H         1 <0>         0.4000
     10 H2          2.2649   -0.3019    1.1929 H         1 <0>         0.0000
     11 H3          2.2705   -1.2450   -0.3216 H         1 <0>         0.0000
     12 H4          0.0577   -2.2515   -0.0070 H         1 <0>         0.1500
     13 H5          0.5145    2.0353    0.1203 H         1 <0>         0.1500
     14 H6         -2.3914   -1.9788   -0.1024 H         1 <0>         0.1500
     15 H7         -1.9410    2.2916    0.0266 H         1 <0>         0.1500
     16 H8         -3.4005    0.2871   -0.0885 H         1 <0>         0.1500
@<TRIPOS>BOND
     1    1    3 1
     2    1    9 1
     3    2    3 1
     4    2    4 ar
     5    2    5 ar
     6    3   10 1
     7    3   11 1
     8    4    6 ar
     9    4   12 1
    10    5    7 ar
    11    5   13 1
    12    6    8 ar
    13    6   14 1
    14    7    8 ar
    15    7   15 1
    16    8   16 1
