@<TRIPOS>MOLECULE
DB06792
    4     3     0     0     0
SMALL
USER_CHARGES

@<TRIPOS>ATOM
      1 O1          1.1150   -0.6438    0.0000 O.co2     1 <0>        -0.9830
      2 O2         -1.1150   -0.6438    0.0000 O.co2     1 <0>        -0.9830
      3 O3          0.0000    1.2873    0.0000 O.co2     1 <0>        -0.9830
      4 C1          0.0000    0.0002    0.0000 C.2       1 <0>         0.9500
@<TRIPOS>BOND
     1    1    4 2
     2    2    4 1
     3    3    4 1
