@<TRIPOS>MOLECULE
DB06768
   11    10     0     0     0
SMALL
USER_CHARGES

@<TRIPOS>ATOM
      1 C1          1.1451   -0.7735   -0.0410 C.2       1 <0>         0.9060
      2 C2         -1.2834   -0.0472   -0.1927 C.3       1 <0>         0.0000
      3 C3          0.0630    0.2229    0.4436 C.3       1 <0>         0.1740
      4 O1          2.1587   -0.1666   -0.5184 O.co2     1 <0>        -0.9000
      5 O2          0.9041   -2.0002    0.1004 O.co2     1 <0>        -0.9000
      6 O3          0.5033    1.5464    0.0678 O.3       1 <0>        -0.6800
      7 H1         -1.6797   -1.0232    0.1051 H         1 <0>         0.0000
      8 H2         -1.2110   -0.0272   -1.2859 H         1 <0>         0.0000
      9 H3         -2.0050    0.7255    0.0914 H         1 <0>         0.0000
     10 H4         -0.0013    0.1889    1.5353 H         1 <0>         0.0000
     11 H5          1.4062    1.3542   -0.3056 H         1 <0>         0.4000
@<TRIPOS>BOND
     1    1    3 1
     2    1    4 2
     3    1    5 1
     4    2    3 1
     5    2    7 1
     6    2    8 1
     7    2    9 1
     8    3    6 1
     9    3   10 1
    10    6   11 1
