@<TRIPOS>MOLECULE
DB06151
   18    17     0     0     0
SMALL
USER_CHARGES

@<TRIPOS>ATOM
      1 S1          2.9410    1.3952   -0.5531 S.3       1 <0>        -0.4100
      2 O1          2.5650   -2.0343   -0.6168 O.co2     1 <0>        -0.9000
      3 O2          0.6923   -2.5408    0.6071 O.co2     1 <0>        -0.9000
      4 O3         -1.2903    1.5397   -1.0428 O.2       1 <0>        -0.5700
      5 N1         -0.6299   -0.4338   -0.0609 N.am      1 <0>        -0.7300
      6 C1          0.7985   -0.4151   -0.4378 C.3       1 <0>         0.1940
      7 C2          1.5646    0.6350    0.3746 C.3       1 <0>         0.2300
      8 C3          1.4316   -1.8019   -0.1197 C.2       1 <0>         0.9060
      9 C4         -1.5483    0.5250   -0.4022 C.2       1 <0>         0.5690
     10 C5         -2.9293    0.2422    0.1218 C.3       1 <0>         0.0610
     11 H1          3.3832    2.1683    0.4488 H         1 <0>         0.1800
     12 H2         -0.8761   -1.2657    0.4795 H         1 <0>         0.3700
     13 H3          0.8353   -0.2189   -1.5155 H         1 <0>         0.0000
     14 H4          1.9732    0.2120    1.2997 H         1 <0>         0.0000
     15 H5          0.9092    1.4604    0.6696 H         1 <0>         0.0000
     16 H6         -3.1037   -0.8330    0.2178 H         1 <0>         0.0000
     17 H7         -3.6709    0.6511   -0.5707 H         1 <0>         0.0000
     18 H8         -3.0455    0.7147    1.1005 H         1 <0>         0.0000
@<TRIPOS>BOND
     1    1    7 1
     2    1   11 1
     3    2    8 2
     4    3    8 1
     5    4    9 2
     6    5    6 1
     7    5    9 am
     8    5   12 1
     9    6    7 1
    10    6    8 1
    11    6   13 1
    12    7   14 1
    13    7   15 1
    14    9   10 1
    15   10   16 1
    16   10   17 1
    17   10   18 1
