@<TRIPOS>MOLECULE
DB06803
   29    30     0     0     0
SMALL
USER_CHARGES

@<TRIPOS>ATOM
      1 C1          3.5603    0.9599    0.6170 C.ar      1 <0>        -0.1500
      2 C2          2.1610    0.9298    0.6055 C.ar      1 <0>        -0.1500
      3 C3          1.4731   -0.0903   -0.0616 C.ar      1 <0>         0.1170
      4 C4          2.2181   -1.0859   -0.7226 C.ar      1 <0>         0.1770
      5 C5          3.6159   -1.0694   -0.7178 C.ar      1 <0>        -0.1500
      6 C6          4.2799   -0.0410   -0.0432 C.ar      1 <0>         0.1330
      7 N1          5.7446   -0.0137   -0.0266 N.pl3     1 <0>         0.9070
      8 O1          6.3433   -0.8927   -0.6608 O.2       1 <0>        -0.5200
      9 O2          6.2985    0.8844    0.6232 O.2       1 <0>        -0.5200
     10 Cl1         1.4262   -2.3774   -1.5630 Cl        1 <0>        -0.1770
     11 N2          0.0607   -0.1722   -0.1001 N.am      1 <0>        -0.5470
     12 C7         -0.8504    0.6860    0.4854 C.2       1 <0>         0.5440
     13 O3         -0.6302    1.6941    1.1421 O.2       1 <0>        -0.5700
     14 C8         -2.2543    0.2615    0.2973 C.ar      1 <0>         0.0860
     15 C9         -3.1395    1.0259   -0.4681 C.ar      1 <0>         0.0820
     16 C10        -4.4637    0.6131   -0.6192 C.ar      1 <0>        -0.1500
     17 C11        -4.8989   -0.5632   -0.0018 C.ar      1 <0>        -0.1500
     18 C12        -4.0096   -1.3218    0.7615 C.ar      1 <0>         0.1770
     19 C13        -2.6859   -0.9182    0.9168 C.ar      1 <0>        -0.1500
     20 Cl2        -4.5540   -2.7681    1.5176 Cl        1 <0>        -0.1770
     21 O4         -2.6985    2.1574   -1.0923 O.3       1 <0>        -0.5320
     22 H1          4.0612    1.7684    1.1471 H         1 <0>         0.1500
     23 H2          1.6344    1.7229    1.1289 H         1 <0>         0.1500
     24 H3          4.1661   -1.8531   -1.2340 H         1 <0>         0.1500
     25 H4         -0.3067   -0.9606   -0.6274 H         1 <0>         0.3700
     26 H5         -5.1678    1.1869   -1.2160 H         1 <0>         0.1500
     27 H6         -5.9312   -0.8820   -0.1223 H         1 <0>         0.1500
     28 H7         -1.9992   -1.5039    1.5235 H         1 <0>         0.1500
     29 H8         -3.4533    2.6232   -1.4892 H         1 <0>         0.4500
@<TRIPOS>BOND
     1    1    2 ar
     2    1    6 ar
     3    1   22 1
     4    2    3 ar
     5    2   23 1
     6    3    4 ar
     7    3   11 1
     8    4    5 ar
     9    4   10 1
    10    5    6 ar
    11    5   24 1
    12    6    7 1
    13    7    8 2
    14    7    9 2
    15   11   12 am
    16   11   25 1
    17   12   13 2
    18   12   14 1
    19   14   15 ar
    20   14   19 ar
    21   15   16 ar
    22   15   21 1
    23   16   17 ar
    24   16   26 1
    25   17   18 ar
    26   17   27 1
    27   18   19 ar
    28   18   20 1
    29   19   28 1
    30   21   29 1
