@<TRIPOS>MOLECULE
DB06795
   23    23     0     0     0
SMALL
USER_CHARGES

@<TRIPOS>ATOM
      1 C1         -0.7775   -1.1921   -0.1047 C.ar      1 <0>        -0.1500
      2 C2          0.5823   -1.2058    0.2098 C.ar      1 <0>        -0.1500
      3 C3          1.2851   -0.0038    0.3845 C.ar      1 <0>        -0.1440
      4 C4          0.6062    1.2154    0.2304 C.ar      1 <0>        -0.1500
      5 C5         -0.7546    1.2345   -0.0835 C.ar      1 <0>        -0.1500
      6 C6         -1.4399    0.0296   -0.2413 C.ar      1 <0>        -0.0090
      7 C7          2.7574   -0.0209    0.6736 C.3       1 <0>         0.6460
      8 N1          3.5578   -0.0083   -0.5727 N.4       1 <0>        -0.8530
      9 S1         -3.1502    0.0454   -0.6917 S.o2      1 <0>         1.4470
     10 O1         -3.4696    1.3482   -1.2287 O.2       1 <0>        -0.6500
     11 O2         -3.4423   -1.1756   -1.4094 O.2       1 <0>        -0.6500
     12 N2         -3.8957   -0.0687    0.8161 N.pl3     1 <0>        -0.9780
     13 H1         -1.3078   -2.1318   -0.2412 H         1 <0>         0.1500
     14 H2          1.0817   -2.1668    0.3162 H         1 <0>         0.1500
     15 H3          1.1254    2.1646    0.3543 H         1 <0>         0.1500
     16 H4         -1.2653    2.1874   -0.2030 H         1 <0>         0.1500
     17 H5          3.0462   -0.9191    1.2296 H         1 <0>         0.0000
     18 H6          3.0622    0.8535    1.2586 H         1 <0>         0.0000
     19 H7          3.3360   -0.8209   -1.1621 H         1 <0>         0.4500
     20 H8          4.5657   -0.0277   -0.3739 H         1 <0>         0.4500
     21 H9          3.3616    0.8338   -1.1281 H         1 <0>         0.4500
     22 H10        -4.4388    0.7672    1.0449 H         1 <0>         0.4200
     23 H11        -4.4258   -0.9382    0.9221 H         1 <0>         0.4200
@<TRIPOS>BOND
     1    1    2 ar
     2    1    6 ar
     3    1   13 1
     4    2    3 ar
     5    2   14 1
     6    3    4 ar
     7    3    7 1
     8    4    5 ar
     9    4   15 1
    10    5    6 ar
    11    5   16 1
    12    6    9 1
    13    7    8 1
    14    7   17 1
    15    7   18 1
    16    8   19 1
    17    8   20 1
    18    8   21 1
    19    9   10 2
    20    9   11 2
    21    9   12 1
    22   12   22 1
    23   12   23 1
