@<TRIPOS>MOLECULE
DB06819
   23    23     0     0     0
SMALL
USER_CHARGES

@<TRIPOS>ATOM
      1 C1          1.3265    1.0486    0.0205 C.ar      1 <0>        -0.1500
      2 C2          0.9878   -0.3108    0.0114 C.ar      1 <0>        -0.1440
      3 C3          2.6663    1.4524    0.0077 C.ar      1 <0>        -0.1500
      4 C4          2.0293   -1.2548   -0.0072 C.ar      1 <0>        -0.1500
      5 C5          3.6861    0.5029   -0.0130 C.ar      1 <0>        -0.1500
      6 C6          3.3669   -0.8516   -0.0199 C.ar      1 <0>        -0.1500
      7 C7         -0.4391   -0.8200    0.0279 C.3       1 <0>         0.1440
      8 C8         -1.5516    0.2342   -0.0009 C.3       1 <0>         0.0000
      9 C9         -2.9375   -0.4086    0.0012 C.3       1 <0>        -0.1060
     10 C10        -4.1071    0.5826   -0.0266 C.2       1 <0>         0.9060
     11 O1         -5.2489    0.0370   -0.0205 O.co2     1 <0>        -0.9000
     12 O2         -3.8049    1.8080   -0.0517 O.co2     1 <0>        -0.9000
     13 H1          0.5599    1.8193    0.0360 H         1 <0>         0.1500
     14 H2          2.9082    2.5115    0.0132 H         1 <0>         0.1500
     15 H3          1.7976   -2.3183   -0.0124 H         1 <0>         0.1500
     16 H4          4.7257    0.8202   -0.0225 H         1 <0>         0.1500
     17 H5          4.1576   -1.5969   -0.0349 H         1 <0>         0.1500
     18 H6         -0.5637   -1.4341    0.9300 H         1 <0>         0.0000
     19 H7         -0.5668   -1.4821   -0.8385 H         1 <0>         0.0000
     20 H8         -1.4447    0.8617   -0.8956 H         1 <0>         0.0000
     21 H9         -1.4589    0.8961    0.8701 H         1 <0>         0.0000
     22 H10        -3.0506   -1.0316    0.8967 H         1 <0>         0.0000
     23 H11        -3.0383   -1.0656   -0.8710 H         1 <0>         0.0000
@<TRIPOS>BOND
     1    1    2 ar
     2    1    3 ar
     3    1   13 1
     4    2    4 ar
     5    2    7 1
     6    3    5 ar
     7    3   14 1
     8    4    6 ar
     9    4   15 1
    10    5    6 ar
    11    5   16 1
    12    6   17 1
    13    7    8 1
    14    7   18 1
    15    7   19 1
    16    8    9 1
    17    8   20 1
    18    8   21 1
    19    9   10 1
    20    9   22 1
    21    9   23 1
    22   10   11 2
    23   10   12 1
