@<TRIPOS>MOLECULE
DB06794
   25    25     0     0     0
SMALL
USER_CHARGES

@<TRIPOS>ATOM
      1 Cl1        -0.0000   -2.4335    0.0002 Cl        1 <0>        -0.1770
      2 O1         -4.1370    0.8538   -0.0040 O.2       1 <0>        -0.5700
      3 O2          4.1370    0.8536   -0.0010 O.2       1 <0>        -0.5700
      4 O3         -4.3673   -2.5802    0.0025 O.co2     1 <0>        -0.9000
      5 O4         -6.0537   -1.0397   -0.0005 O.co2     1 <0>        -0.9000
      6 O5          4.3667   -2.5808   -0.0006 O.co2     1 <0>        -0.9000
      7 O6          6.0538   -1.0397   -0.0012 O.co2     1 <0>        -0.9000
      8 N1         -2.4256   -0.7438   -0.0005 N.am      1 <0>        -0.5470
      9 N2          2.4250   -0.7446    0.0009 N.am      1 <0>        -0.5470
     10 N3          0.0013    4.7008    0.0012 N.1       1 <0>        -0.5570
     11 C1         -0.0004   -0.6892    0.0007 C.ar      1 <0>         0.1770
     12 C2         -1.2295    0.0037   -0.0002 C.ar      1 <0>         0.1170
     13 C3          1.2288    0.0033    0.0005 C.ar      1 <0>         0.1170
     14 C4         -0.0002    2.1013    0.0008 C.ar      1 <0>         0.0730
     15 C5         -1.2144    1.4019   -0.0004 C.ar      1 <0>        -0.1500
     16 C6          1.2139    1.4015    0.0008 C.ar      1 <0>        -0.1500
     17 C7         -3.7404   -0.3071   -0.0009 C.2       1 <0>         0.4830
     18 C8          3.7405   -0.3071   -0.0005 C.2       1 <0>         0.4830
     19 C9          0.0009    3.5386    0.0006 C.1       1 <0>         0.4840
     20 C10        -4.8370   -1.3955   -0.0001 C.2       1 <0>         0.9470
     21 C11         4.8362   -1.3961   -0.0008 C.2       1 <0>         0.9470
     22 H1         -2.3542   -1.7659    0.0013 H         1 <0>         0.3700
     23 H2          2.3544   -1.7668    0.0009 H         1 <0>         0.3700
     24 H3         -2.1423    1.9660   -0.0004 H         1 <0>         0.1500
     25 H4          2.1433    1.9656    0.0008 H         1 <0>         0.1500
@<TRIPOS>BOND
     1    1   11 1
     2    2   17 2
     3    3   18 2
     4    4   20 2
     5    5   20 1
     6    6   21 2
     7    7   21 1
     8    8   12 1
     9    8   17 am
    10    8   22 1
    11    9   13 1
    12    9   18 am
    13    9   23 1
    14   10   19 3
    15   11   12 ar
    16   11   13 ar
    17   12   15 ar
    18   13   16 ar
    19   14   15 ar
    20   14   16 ar
    21   14   19 1
    22   15   24 1
    23   16   25 1
    24   17   20 1
    25   18   21 1
