@<TRIPOS>MOLECULE
DB06147
   25    26     0     0     0
SMALL
USER_CHARGES

@<TRIPOS>ATOM
      1 N1         -4.0060    1.2920    0.5142 N.pl3     1 <0>        -0.9000
      2 C1         -2.8932    0.5287    0.2065 C.ar      1 <0>         0.1000
      3 C2         -2.3062   -0.2956    1.1734 C.ar      1 <0>        -0.1500
      4 C3         -1.1840   -1.0694    0.8681 C.ar      1 <0>        -0.1500
      5 C4         -0.6424   -1.0132   -0.4175 C.ar      1 <0>        -0.0090
      6 C5         -1.2196   -0.2077   -1.3994 C.ar      1 <0>        -0.1500
      7 C6         -2.3404    0.5627   -1.0788 C.ar      1 <0>        -0.1500
      8 S1          0.7710   -2.0120   -0.8013 S.o2      1 <0>         1.4470
      9 O1          1.1545   -1.7644   -2.1756 O.2       1 <0>        -0.6500
     10 O2          0.4474   -3.3541   -0.3605 O.2       1 <0>        -0.6500
     11 N2          1.9442   -1.4368    0.2384 N.pl3     1 <0>        -0.7040
     12 C7          2.5297   -0.2260    0.1205 C.2       1 <0>         0.5240
     13 N3          3.4174    0.0497    1.0450 N.2       1 <0>        -0.5650
     14 C8          3.9429    1.3058    0.8072 C.2       1 <0>         0.0770
     15 C9          3.4367    1.9623   -0.2950 C.2       1 <0>        -0.1100
     16 S2          2.2603    0.9728   -1.0538 S.3       1 <0>        -0.0800
     17 H1         -4.4287    1.8926   -0.1804 H         1 <0>         0.4000
     18 H2         -4.4157    1.2619    1.4374 H         1 <0>         0.4000
     19 H3         -2.7236   -0.3422    2.1757 H         1 <0>         0.1500
     20 H4         -0.7511   -1.7105    1.6323 H         1 <0>         0.1500
     21 H5         -0.8150   -0.1689   -2.4080 H         1 <0>         0.1500
     22 H6         -2.7856    1.1911   -1.8470 H         1 <0>         0.1500
     23 H7          2.2158   -2.0576    0.9998 H         1 <0>         0.4200
     24 H8          4.6982    1.6986    1.4752 H         1 <0>         0.1500
     25 H9          3.6934    2.9401   -0.6764 H         1 <0>         0.1500
@<TRIPOS>BOND
     1    1    2 1
     2    1   17 1
     3    1   18 1
     4    2    3 ar
     5    2    7 ar
     6    3    4 ar
     7    3   19 1
     8    4    5 ar
     9    4   20 1
    10    5    6 ar
    11    5    8 1
    12    6    7 ar
    13    6   21 1
    14    7   22 1
    15    8    9 2
    16    8   10 2
    17    8   11 1
    18   11   12 1
    19   11   23 1
    20   12   13 2
    21   12   16 1
    22   13   14 1
    23   14   15 2
    24   14   24 1
    25   15   16 1
    26   15   25 1
