@<TRIPOS>MOLECULE
DB06243
   25    24     0     0     0
SMALL
USER_CHARGES

@<TRIPOS>ATOM
      1 C1         -2.3541   -0.3403    0.5364 C.3       1 <0>         0.5030
      2 C2         -1.0432    0.1538   -0.0688 C.3       1 <0>         0.0000
      3 C3          0.1583   -0.4296    0.6868 C.3       1 <0>         0.0000
      4 C4          1.5266   -0.0948    0.0902 C.3       1 <0>         0.3970
      5 C5          2.7148   -0.7816    0.7879 C.2       1 <0>         0.9060
      6 O1          3.5907    0.1193    1.0387 O.co2     1 <0>        -0.9000
      7 N1         -3.4912    0.1832   -0.2579 N.4       1 <0>        -0.8530
      8 O2          2.6616   -2.0074    1.0066 O.co2     1 <0>        -0.9000
      9 C6          1.7369   -0.5345   -1.3579 C.3       1 <0>         0.6800
     10 F1          1.2693    0.4683   -2.1638 F         1 <0>        -0.3400
     11 F2          0.9805   -1.6227   -1.6479 F         1 <0>        -0.3400
     12 N2          1.7848    1.4158    0.2032 N.4       1 <0>        -0.8530
     13 H1         -2.4904    0.0141    1.5614 H         1 <0>         0.0000
     14 H2         -2.4309   -1.4317    0.5108 H         1 <0>         0.0000
     15 H3         -1.0098    1.2498   -0.0374 H         1 <0>         0.0000
     16 H4         -1.0033   -0.1384   -1.1251 H         1 <0>         0.0000
     17 H5          0.0442   -1.5204    0.7282 H         1 <0>         0.0000
     18 H6          0.1242   -0.0927    1.7315 H         1 <0>         0.0000
     19 H7         -3.5192    1.2120   -0.2655 H         1 <0>         0.4500
     20 H8         -4.3886   -0.1413    0.1292 H         1 <0>         0.4500
     21 H9         -3.4527   -0.1358   -1.2354 H         1 <0>         0.4500
     22 H10         2.7737   -0.7345   -1.6464 H         1 <0>         0.0000
     23 H11         2.7945    1.3789    0.5588 H         1 <0>         0.4500
     24 H12         1.2576    1.9005    0.9338 H         1 <0>         0.4500
     25 H13         1.7658    1.9101   -0.6973 H         1 <0>         0.4500
@<TRIPOS>BOND
     1    1    2 1
     2    1    7 1
     3    1   13 1
     4    1   14 1
     5    2    3 1
     6    2   15 1
     7    2   16 1
     8    3    4 1
     9    3   17 1
    10    3   18 1
    11    4    5 1
    12    4    9 1
    13    4   12 1
    14    5    6 2
    15    5    8 1
    16    7   19 1
    17    7   20 1
    18    7   21 1
    19    9   10 1
    20    9   11 1
    21    9   22 1
    22   12   23 1
    23   12   24 1
    24   12   25 1
