@<TRIPOS>MOLECULE
DB06799
   26    28     0     0     0
SMALL
USER_CHARGES

@<TRIPOS>ATOM
      1 C1         -1.1963    1.1975    0.7344 C.3       1 <0>         1.0060
      2 C2          0.0022    1.1468   -1.3682 C.3       1 <0>         1.0060
      3 C3         -1.5396   -1.1790    0.3275 C.3       1 <0>         1.0060
      4 C4          1.2037    1.1914    0.7335 C.3       1 <0>         1.0060
      5 C5         -0.0028   -0.9957   -0.6991 C.3       1 <0>         1.0060
      6 C6          1.5333   -1.1870    0.3274 C.3       1 <0>         1.0060
      7 N1         -1.4749    0.5199   -0.4538 N.4       1 <0>        -0.9590
      8 N2          0.0012    0.3798    0.7335 N.4       1 <0>        -0.9590
      9 N3          1.4769    0.5124   -0.4550 N.4       1 <0>        -0.9590
     10 N4         -0.0047   -1.8345    0.3317 N.4       1 <0>        -0.9590
     11 H1         -1.8839    0.9582    1.5503 H         1 <0>         0.0000
     12 H2         -1.0470    2.2716    0.5935 H         1 <0>         0.0000
     13 H3          0.0016    0.6947   -2.3642 H         1 <0>         0.0000
     14 H4          0.0048    2.2388   -1.3034 H         1 <0>         0.0000
     15 H5         -2.2143   -1.7712   -0.3113 H         1 <0>         0.0000
     16 H6         -1.8984   -1.0796    1.3596 H         1 <0>         0.0000
     17 H7          1.8911    0.9486    1.5496 H         1 <0>         0.0000
     18 H8          1.0589    2.2664    0.5930 H         1 <0>         0.0000
     19 H9          0.8341   -1.0688   -1.4592 H         1 <0>         0.0000
     20 H10        -0.8391   -1.0638   -1.4596 H         1 <0>         0.0000
     21 H11         1.8917   -1.0887    1.3602 H         1 <0>         0.0000
     22 H12         2.2052   -1.7827   -0.3104 H         1 <0>         0.0000
     23 H13        -2.3752    0.8024   -0.8827 H         1 <0>         0.4500
     24 H14         0.0002   -0.0348    1.6887 H         1 <0>         0.4500
     25 H15         2.3789    0.7901   -0.8851 H         1 <0>         0.4500
     26 H16        -0.0076   -2.8327    0.0692 H         1 <0>         0.4500
@<TRIPOS>BOND
     1    1    7 1
     2    1    8 1
     3    1   11 1
     4    1   12 1
     5    2    7 1
     6    2    9 1
     7    2   13 1
     8    2   14 1
     9    3    7 1
    10    3   10 1
    11    3   15 1
    12    3   16 1
    13    4    8 1
    14    4    9 1
    15    4   17 1
    16    4   18 1
    17    5    8 1
    18    5   10 1
    19    5   19 1
    20    5   20 1
    21    6    9 1
    22    6   10 1
    23    6   21 1
    24    6   22 1
    25    7   23 1
    26    8   24 1
    27    9   25 1
    28   10   26 1
