@<TRIPOS>MOLECULE
DB06709
   29    28     0     0     0
SMALL
USER_CHARGES

@<TRIPOS>ATOM
      1 C1         -0.2351   -2.3646    0.2277 C.3       1 <0>         0.0000
      2 C2         -0.6693   -1.1521   -0.5827 C.3       1 <0>         0.2800
      3 C3          0.4617   -0.2051   -1.0505 C.3       1 <0>         0.5030
      4 N1          1.3869    0.4331    0.0186 N.4       1 <0>        -1.0120
      5 C4          2.4513   -0.5395    0.5165 C.3       1 <0>         0.5030
      6 C5          0.6182    1.0071    1.1997 C.3       1 <0>         0.5030
      7 C6          2.1257    1.5977   -0.6664 C.3       1 <0>         0.5030
      8 O1         -1.6888   -0.4624    0.1744 O.3       1 <0>        -0.4300
      9 C7         -2.5757    0.2827   -0.5454 C.2       1 <0>         0.6590
     10 O2         -2.5221    0.4668   -1.7518 O.2       1 <0>        -0.5700
     11 C8         -3.6133    0.8668    0.3630 C.3       1 <0>         0.0610
     12 H1          0.6178   -2.8726   -0.2305 H         1 <0>         0.0000
     13 H2         -1.0630   -3.0825    0.2878 H         1 <0>         0.0000
     14 H3         -0.0042   -2.1044    1.2631 H         1 <0>         0.0000
     15 H4         -1.1383   -1.5543   -1.4924 H         1 <0>         0.0000
     16 H5          0.0135    0.6392   -1.5863 H         1 <0>         0.0000
     17 H6          1.1210   -0.7308   -1.7511 H         1 <0>         0.0000
     18 H7          2.9475   -0.9892   -0.3490 H         1 <0>         0.0000
     19 H8          1.9864   -1.3032    1.1373 H         1 <0>         0.0000
     20 H9          3.1749    0.0180    1.1201 H         1 <0>         0.0000
     21 H10         1.3205    1.5554    1.8347 H         1 <0>         0.0000
     22 H11         0.1785    0.1880    1.7726 H         1 <0>         0.0000
     23 H12        -0.1506    1.6841    0.8180 H         1 <0>         0.0000
     24 H13         2.8145    2.0480    0.0549 H         1 <0>         0.0000
     25 H14         1.3853    2.3347   -0.9916 H         1 <0>         0.0000
     26 H15         2.6762    1.1974   -1.5235 H         1 <0>         0.0000
     27 H16        -3.1402    1.5457    1.0770 H         1 <0>         0.0000
     28 H17        -4.1411    0.0657    0.8860 H         1 <0>         0.0000
     29 H18        -4.3383    1.4303   -0.2302 H         1 <0>         0.0000
@<TRIPOS>BOND
     1    1    2 1
     2    1   12 1
     3    1   13 1
     4    1   14 1
     5    2    3 1
     6    2    8 1
     7    2   15 1
     8    3    4 1
     9    3   16 1
    10    3   17 1
    11    4    5 1
    12    4    6 1
    13    4    7 1
    14    5   18 1
    15    5   19 1
    16    5   20 1
    17    6   21 1
    18    6   22 1
    19    6   23 1
    20    7   24 1
    21    7   25 1
    22    7   26 1
    23    8    9 1
    24    9   10 2
    25    9   11 1
    26   11   27 1
    27   11   28 1
    28   11   29 1
