@<TRIPOS>MOLECULE
DB06262
   26    26     0     0     0
SMALL
USER_CHARGES

@<TRIPOS>ATOM
      1 O1          1.3845    1.3930   -0.9771 O.3       1 <0>        -0.6800
      2 O2          4.4115   -0.0782    0.0991 O.co2     1 <0>        -0.9000
      3 O3         -3.6085    1.9209   -0.2560 O.3       1 <0>        -0.5320
      4 O4         -4.4346   -0.6322   -0.0209 O.3       1 <0>        -0.5320
      5 O5          3.4327    0.8396    1.9922 O.co2     1 <0>        -0.9000
      6 N1          2.4538   -0.9189   -1.0167 N.4       1 <0>        -0.8530
      7 C1          1.0965    0.7053    0.2632 C.3       1 <0>         0.4240
      8 C2          2.1520   -0.3988    0.3820 C.3       1 <0>         0.3970
      9 C3         -0.3580    0.2695    0.1762 C.ar      1 <0>        -0.1440
     10 C4         -1.3324    1.2699   -0.0098 C.ar      1 <0>        -0.1500
     11 C5         -0.7945   -1.0623    0.2968 C.ar      1 <0>        -0.1500
     12 C6          3.4695    0.1997    0.9189 C.2       1 <0>         0.9060
     13 C7         -2.6785    0.9379   -0.0755 C.ar      1 <0>         0.0820
     14 C8         -2.1568   -1.3902    0.2315 C.ar      1 <0>        -0.1500
     15 C9         -3.0916   -0.3818    0.0463 C.ar      1 <0>         0.0820
     16 H1          1.8545    2.2155   -0.7358 H         1 <0>         0.4000
     17 H2         -4.4605    1.4387   -0.2619 H         1 <0>         0.4500
     18 H3         -4.5625   -1.5887    0.1052 H         1 <0>         0.4500
     19 H4          3.5106   -0.8166   -1.0249 H         1 <0>         0.4500
     20 H5          2.1719   -1.8761   -1.2240 H         1 <0>         0.4500
     21 H6          2.0850   -0.2237   -1.6883 H         1 <0>         0.4500
     22 H7          1.1690    1.4251    1.0878 H         1 <0>         0.0000
     23 H8          1.8856   -1.2504    1.0144 H         1 <0>         0.0000
     24 H9         -1.0414    2.3136   -0.1069 H         1 <0>         0.1500
     25 H10        -0.0993   -1.8821    0.4524 H         1 <0>         0.1500
     26 H11        -2.4582   -2.4284    0.3317 H         1 <0>         0.1500
@<TRIPOS>BOND
     1    1    7 1
     2    1   16 1
     3    2   12 2
     4    3   13 1
     5    3   17 1
     6    4   15 1
     7    4   18 1
     8    5   12 1
     9    6    8 1
    10    6   19 1
    11    6   20 1
    12    6   21 1
    13    7    8 1
    14    7    9 1
    15    7   22 1
    16    8   12 1
    17    8   23 1
    18    9   10 ar
    19    9   11 ar
    20   10   13 ar
    21   10   24 1
    22   11   14 ar
    23   11   25 1
    24   13   15 ar
    25   14   15 ar
    26   14   26 1
