@<TRIPOS>MOLECULE
DB06637
   13    13     0     0     0
SMALL
USER_CHARGES

@<TRIPOS>ATOM
      1 C1          0.0415    1.4006    0.0004 C.2       1 <0>        -0.1360
      2 C2          0.7081   -1.0600   -0.0003 C.2       1 <0>        -0.1360
      3 C3         -1.2260    0.9740   -0.0003 C.2       1 <0>        -0.0500
      4 C4         -0.6030   -1.3275    0.0003 C.2       1 <0>        -0.0500
      5 C5          1.1162    0.3729   -0.0002 C.2       1 <0>         0.4210
      6 N1          2.3561    0.7469   -0.0003 N.2       1 <0>        -0.8500
      7 N2         -1.5637   -0.3524   -0.0005 N.pl3     1 <0>        -0.6000
      8 H1          0.3219    2.4442    0.0003 H         1 <0>         0.1500
      9 H2          1.4625   -1.8341    0.0003 H         1 <0>         0.1500
     10 H3         -2.0665    1.6600    0.0000 H         1 <0>         0.1500
     11 H4         -0.9850   -2.3430    0.0001 H         1 <0>         0.1500
     12 H5          2.9808   -0.0644    0.0000 H         1 <0>         0.4000
     13 H6         -2.5427   -0.6173    0.0001 H         1 <0>         0.4000
@<TRIPOS>BOND
     1    1    3 2
     2    1    5 1
     3    1    8 1
     4    2    4 2
     5    2    5 1
     6    2    9 1
     7    3    7 1
     8    3   10 1
     9    4    7 1
    10    4   11 1
    11    5    6 2
    12    6   12 1
    13    7   13 1
