@<TRIPOS>MOLECULE
DB06704
   23    23     0     0     0
SMALL
USER_CHARGES

@<TRIPOS>ATOM
      1 C1          2.9565   -1.2512   -0.3773 C.ar      1 <0>        -0.1500
      2 C2          1.6221   -1.3239    0.0315 C.ar      1 <0>        -0.1500
      3 C3          0.9475   -0.1735    0.4655 C.ar      1 <0>        -0.1440
      4 C4          1.6248    1.0554    0.4629 C.ar      1 <0>        -0.1500
      5 C5          2.9580    1.1204    0.0524 C.ar      1 <0>         0.0810
      6 C6          3.6275   -0.0290   -0.3660 C.ar      1 <0>        -0.1500
      7 I1          3.9490    2.9487    0.0577 I         1 <0>        -0.0810
      8 C7         -0.4971   -0.2459    0.8773 C.3       1 <0>         0.4710
      9 N1         -1.3227    0.0206   -0.3020 N.pl3     1 <0>        -0.8440
     10 C8         -2.6731    0.0887   -0.2826 C.cat     1 <0>         1.2000
     11 N2         -3.3387    0.3539   -1.4280 N.pl3     1 <0>        -0.9670
     12 N3         -3.3846   -0.0983    0.8489 N.pl3     1 <0>        -0.9670
     13 H1          3.4732   -2.1503   -0.7046 H         1 <0>         0.1500
     14 H2          1.1176   -2.2877    0.0104 H         1 <0>         0.1500
     15 H3          1.1075    1.9572    0.7847 H         1 <0>         0.1500
     16 H4          4.6664    0.0092   -0.6856 H         1 <0>         0.1500
     17 H5         -0.7074    0.5054    1.6465 H         1 <0>         0.0000
     18 H6         -0.7344   -1.2418    1.2665 H         1 <0>         0.0000
     19 H7         -0.8566    0.1708   -1.1884 H         1 <0>         0.4500
     20 H8         -2.8534    0.5035   -2.3049 H         1 <0>         0.4500
     21 H9         -4.3488    0.4120   -1.4486 H         1 <0>         0.4500
     22 H10        -2.9373   -0.3046    1.7327 H         1 <0>         0.4500
     23 H11        -4.3961   -0.0395    0.8511 H         1 <0>         0.4500
@<TRIPOS>BOND
     1    1    2 ar
     2    1    6 ar
     3    1   13 1
     4    2    3 ar
     5    2   14 1
     6    3    4 ar
     7    3    8 1
     8    4    5 ar
     9    4   15 1
    10    5    6 ar
    11    5    7 1
    12    6   16 1
    13    8    9 1
    14    8   17 1
    15    8   18 1
    16    9   10 1
    17    9   19 1
    18   10   11 2
    19   10   12 1
    20   11   20 1
    21   11   21 1
    22   12   22 1
    23   12   23 1
