@<TRIPOS>MOLECULE
DB06698
   23    23     0     0     0
SMALL
USER_CHARGES

@<TRIPOS>ATOM
      1 C1          3.7677    0.5589    0.0045 C.3       1 <0>         0.5030
      2 N1          2.6452   -0.4199   -0.0058 N.4       1 <0>        -0.9060
      3 C2          1.2846    0.2189    0.0030 C.3       1 <0>         0.5030
      4 C3          0.2107   -0.8683   -0.0028 C.3       1 <0>         0.1440
      5 C4         -1.1861   -0.3024   -0.0005 C.ar      1 <0>         0.1660
      6 C5         -2.2807   -1.1665    0.0020 C.ar      1 <0>        -0.1500
      7 C6         -3.5631   -0.6240    0.0024 C.ar      1 <0>        -0.1500
      8 C7         -3.7207    0.7556    0.0001 C.ar      1 <0>        -0.1500
      9 C8         -2.5809    1.5407   -0.0018 C.ar      1 <0>         0.1600
     10 N2         -1.3219    1.0451   -0.0029 N.ar      1 <0>        -0.6200
     11 H1          4.6986   -0.0138   -0.0015 H         1 <0>         0.0000
     12 H2          3.6924    1.1600    0.9129 H         1 <0>         0.0000
     13 H3          3.6925    1.1778   -0.8931 H         1 <0>         0.0000
     14 H4          2.7417   -1.0391    0.8108 H         1 <0>         0.4500
     15 H5          2.7401   -1.0205   -0.8361 H         1 <0>         0.4500
     16 H6          1.2259    0.8527   -0.8884 H         1 <0>         0.0000
     17 H7          1.2296    0.8388    0.9035 H         1 <0>         0.0000
     18 H8          0.3318   -1.5073    0.8807 H         1 <0>         0.0000
     19 H9          0.3310   -1.5000   -0.8913 H         1 <0>         0.0000
     20 H10        -2.1468   -2.2434    0.0040 H         1 <0>         0.1500
     21 H11        -4.4338   -1.2743    0.0044 H         1 <0>         0.1500
     22 H12        -4.7072    1.2063    0.0003 H         1 <0>         0.1500
     23 H13        -2.6507    2.6246   -0.0046 H         1 <0>         0.1500
@<TRIPOS>BOND
     1    1    2 1
     2    1   11 1
     3    1   12 1
     4    1   13 1
     5    2    3 1
     6    2   14 1
     7    2   15 1
     8    3    4 1
     9    3   16 1
    10    3   17 1
    11    4    5 1
    12    4   18 1
    13    4   19 1
    14    5    6 ar
    15    5   10 ar
    16    6    7 ar
    17    6   20 1
    18    7    8 ar
    19    7   21 1
    20    8    9 ar
    21    8   22 1
    22    9   10 ar
    23    9   23 1
