@<TRIPOS>MOLECULE
DB08933
   30    32     0     0     0
SMALL
USER_CHARGES

@<TRIPOS>ATOM
      1 C1         -2.9691   -0.4844   -0.9818 C.ar      1 <0>        -0.1500
      2 C2         -4.3009   -0.7561   -1.3052 C.ar      1 <0>        -0.1500
      3 C3         -5.3080   -0.4419   -0.4000 C.ar      1 <0>         0.1770
      4 C4         -4.9964    0.1474    0.8210 C.ar      1 <0>        -0.1500
      5 C5         -3.6618    0.4182    1.1455 C.ar      1 <0>         0.1770
      6 Cl1        -6.9487   -0.7770   -0.7954 Cl        1 <0>        -0.1770
      7 Cl2        -3.3737    1.1760    2.6736 Cl        1 <0>        -0.1770
      8 S1          1.2153    1.5296   -0.0054 S.3       1 <0>        -0.3310
      9 C6         -0.5753    1.4878   -0.3050 C.3       1 <0>         0.2300
     10 S2         -0.0765   -1.0760    0.3674 S.3       1 <0>        -0.3310
     11 C7          1.4493   -0.1962    0.1689 C.2       1 <0>         0.2020
     12 C8         -2.6167    0.0968    0.2558 C.ar      1 <0>        -0.1440
     13 C9         -1.1583    0.3856    0.5729 C.3       1 <0>         0.3740
     14 C10         2.6512   -0.8339    0.2133 C.2       1 <0>         0.0340
     15 N1          3.9527   -0.2819    0.0311 N.pl3     1 <0>         0.3340
     16 C11         4.3564    0.9377   -0.4865 C.2       1 <0>        -0.3020
     17 C12         5.7279    0.9749   -0.4305 C.2       1 <0>         0.0770
     18 N2          6.2199   -0.1801    0.0859 N.2       1 <0>        -0.5650
     19 C13         5.1597   -0.9113    0.3399 C.2       1 <0>         0.0370
     20 C14         2.6449   -2.2500    0.4802 C.1       1 <0>         0.4920
     21 N3          2.6778   -3.3900    0.6955 N.1       1 <0>        -0.5570
     22 H1         -2.2022   -0.7398   -1.7125 H         1 <0>         0.1500
     23 H2         -4.5396   -1.2120   -2.2628 H         1 <0>         0.1500
     24 H3         -5.7907    0.3967    1.5198 H         1 <0>         0.1500
     25 H4         -1.0128    2.4612   -0.0613 H         1 <0>         0.0000
     26 H5         -0.7456    1.3104   -1.3736 H         1 <0>         0.0000
     27 H6         -1.0420    0.6691    1.6231 H         1 <0>         0.0000
     28 H7          3.6758    1.6700   -0.8873 H         1 <0>         0.1500
     29 H8          6.3803    1.7743   -0.7531 H         1 <0>         0.1500
     30 H9          5.2066   -1.9051    0.7663 H         1 <0>         0.1500
@<TRIPOS>BOND
     1    1    2 ar
     2    1   12 ar
     3    1   22 1
     4    2    3 ar
     5    2   23 1
     6    3    4 ar
     7    3    6 1
     8    4    5 ar
     9    4   24 1
    10    5    7 1
    11    5   12 ar
    12    8    9 1
    13    8   11 1
    14    9   13 1
    15    9   25 1
    16    9   26 1
    17   10   11 1
    18   10   13 1
    19   11   14 2
    20   12   13 1
    21   13   27 1
    22   14   15 1
    23   14   20 1
    24   15   16 1
    25   15   19 1
    26   16   17 2
    27   16   28 1
    28   17   18 1
    29   17   29 1
    30   18   19 2
    31   19   30 1
    32   20   21 3
