@<TRIPOS>MOLECULE
DB08908
   18    17     0     0     0
SMALL
USER_CHARGES

@<TRIPOS>ATOM
      1 C1          4.1632   -0.1090    0.0137 C.3       1 <0>         0.2800
      2 C2         -4.1631    0.1118    0.0140 C.3       1 <0>         0.2800
      3 C3          0.5601   -0.3646   -0.0155 C.2       1 <0>        -0.1360
      4 C4         -0.5601    0.3611   -0.0157 C.2       1 <0>        -0.1360
      5 C5          1.8628    0.3162   -0.0141 C.2       1 <0>         0.7060
      6 C6         -1.8625   -0.3184   -0.0127 C.2       1 <0>         0.7060
      7 O1          2.0232    1.5255   -0.0249 O.2       1 <0>        -0.5700
      8 O2         -2.0248   -1.5277   -0.0225 O.2       1 <0>        -0.5700
      9 O3          2.8324   -0.6315    0.0036 O.3       1 <0>        -0.4300
     10 O4         -2.8316    0.6312    0.0028 O.3       1 <0>        -0.4300
     11 H1          0.5560   -1.4491   -0.0150 H         1 <0>         0.1500
     12 H2         -0.5546    1.4454   -0.0143 H         1 <0>         0.1500
     13 H3          4.8581   -0.9534    0.0413 H         1 <0>         0.0000
     14 H4          4.3265    0.5055    0.9052 H         1 <0>         0.0000
     15 H5          4.3526    0.4681   -0.8955 H         1 <0>         0.0000
     16 H6         -4.8565    0.9570    0.0317 H         1 <0>         0.0000
     17 H7         -4.3302   -0.4937    0.9095 H         1 <0>         0.0000
     18 H8         -4.3517   -0.4743   -0.8916 H         1 <0>         0.0000
@<TRIPOS>BOND
     1    1    9 1
     2    1   13 1
     3    1   14 1
     4    1   15 1
     5    2   10 1
     6    2   16 1
     7    2   17 1
     8    2   18 1
     9    3    4 2
    10    3    5 1
    11    3   11 1
    12    4    6 1
    13    4   12 1
    14    5    7 2
    15    5    9 1
    16    6    8 2
    17    6   10 1
