@<TRIPOS>MOLECULE
DB08946
   28    28     0     0     0
SMALL
USER_CHARGES

@<TRIPOS>ATOM
      1 C1         -2.9056    1.1592    1.4902 C.3       1 <0>         0.0000
      2 C2         -1.8407    0.9821    0.4130 C.3       1 <0>         0.0000
      3 C3         -0.6896   -0.6936   -1.1790 C.3       1 <0>         0.1440
      4 C4          2.5373   -1.6797    0.6689 C.ar      1 <0>        -0.1500
      5 C5         -1.7919   -0.4513   -0.1262 C.3       1 <0>        -0.1060
      6 C6          0.7252   -0.6416   -0.6215 C.ar      1 <0>        -0.1440
      7 C7          1.2625   -1.7371    0.0938 C.ar      1 <0>         0.0810
      8 C8          3.3141   -0.5308    0.5385 C.ar      1 <0>         0.0810
      9 C9          1.5588    0.5019   -0.7693 C.ar      1 <0>         0.0810
     10 C10         2.8501    0.5775   -0.1834 C.ar      1 <0>         0.1000
     11 C11        -3.0764   -0.8319   -0.8816 C.2       1 <0>         0.9060
     12 I1          0.2709   -3.5928    0.3494 I         1 <0>        -0.0810
     13 I2          5.2118   -0.5421    1.4526 I         1 <0>        -0.0810
     14 I3          0.9453    2.2085   -1.9446 I         1 <0>        -0.0810
     15 N1          3.6397    1.7164   -0.3140 N.pl3     1 <0>        -0.9000
     16 O1         -3.5214   -1.9822   -0.6071 O.co2     1 <0>        -0.9000
     17 O2         -3.5240    0.0311   -1.6872 O.co2     1 <0>        -0.9000
     18 H1         -2.8784    2.1812    1.8806 H         1 <0>         0.0000
     19 H2         -2.7343    0.4737    2.3268 H         1 <0>         0.0000
     20 H3         -3.9102    0.9775    1.0958 H         1 <0>         0.0000
     21 H4         -0.8741    1.2453    0.8562 H         1 <0>         0.0000
     22 H5         -2.0343    1.7004   -0.3915 H         1 <0>         0.0000
     23 H6         -0.8155   -0.0034   -2.0167 H         1 <0>         0.0000
     24 H7         -0.8298   -1.6682   -1.6666 H         1 <0>         0.0000
     25 H8          2.9267   -2.5335    1.2201 H         1 <0>         0.1500
     26 H9         -1.6671   -1.1304    0.7246 H         1 <0>         0.0000
     27 H10         3.2994    2.5117   -0.8398 H         1 <0>         0.4000
     28 H11         4.5518    1.7519    0.1178 H         1 <0>         0.4000
@<TRIPOS>BOND
     1    1    2 1
     2    1   18 1
     3    1   19 1
     4    1   20 1
     5    2    5 1
     6    2   21 1
     7    2   22 1
     8    3    5 1
     9    3    6 1
    10    3   23 1
    11    3   24 1
    12    4    7 ar
    13    4    8 ar
    14    4   25 1
    15    5   11 1
    16    5   26 1
    17    6    7 ar
    18    6    9 ar
    19    7   12 1
    20    8   10 ar
    21    8   13 1
    22    9   10 ar
    23    9   14 1
    24   10   15 1
    25   11   16 2
    26   11   17 1
    27   15   27 1
    28   15   28 1
