@<TRIPOS>MOLECULE
DB08826
   19    19     0     0     0
SMALL
USER_CHARGES

@<TRIPOS>ATOM
      1 N1         -0.3364    0.8421    0.0007 N.pl3     1 <0>        -0.5690
      2 C1          0.7997    1.6402    0.0020 C.2       1 <0>        -0.0500
      3 C2          2.0537    1.1901    0.0011 C.2       1 <0>        -0.1360
      4 C3         -0.1773   -0.5642    0.0004 C.2       1 <0>        -0.0380
      5 C4          1.0483   -1.1468    0.0001 C.2       1 <0>         0.0910
      6 C5          2.2584   -0.2672   -0.0001 C.2       1 <0>         0.5410
      7 O1          3.4018   -0.7168   -0.0015 O.2       1 <0>        -0.5700
      8 O2          1.2767   -2.5109   -0.0008 O.3       1 <0>        -0.5270
      9 C6         -1.4108   -1.4425    0.0025 C.3       1 <0>         0.1380
     10 C7         -1.6565    1.4859   -0.0022 C.3       1 <0>         0.3690
     11 H1          0.6107    2.7101    0.0021 H         1 <0>         0.1500
     12 H2          2.9216    1.8344    0.0015 H         1 <0>         0.1500
     13 H3          0.4344   -2.9889   -0.0055 H         1 <0>         0.4500
     14 H4         -2.3536   -0.8929    0.0152 H         1 <0>         0.0000
     15 H5         -1.4164   -2.0876    0.8886 H         1 <0>         0.0000
     16 H6         -1.4289   -2.0720   -0.8955 H         1 <0>         0.0000
     17 H7         -1.5836    2.5806   -0.0026 H         1 <0>         0.0000
     18 H8         -2.2226    1.2037    0.8921 H         1 <0>         0.0000
     19 H9         -2.2192    1.2028   -0.8980 H         1 <0>         0.0000
@<TRIPOS>BOND
     1    1    2 1
     2    1    4 1
     3    1   10 1
     4    2    3 2
     5    2   11 1
     6    3    6 1
     7    3   12 1
     8    4    5 2
     9    4    9 1
    10    5    6 1
    11    5    8 1
    12    6    7 2
    13    8   13 1
    14    9   14 1
    15    9   15 1
    16    9   16 1
    17   10   17 1
    18   10   18 1
    19   10   19 1
