@<TRIPOS>MOLECULE
DB08913
    3     2     0     0     0
SMALL
USER_CHARGES

@<TRIPOS>ATOM
      1 Ra1         0.0003    0.0645   -0.0000 Ra        1 <0>         1.1300
      2 Cl1        -3.2805   -0.0322   -0.0000 Cl        1 <0>        -0.5650
      3 Cl2         3.2802   -0.0322   -0.0000 Cl        1 <0>        -0.5650
@<TRIPOS>BOND
     1    1    2 1
     2    1    3 1
