@<TRIPOS>MOLECULE
DB08797
   17    17     0     0     0
SMALL
USER_CHARGES

@<TRIPOS>ATOM
      1 O1          0.0936   -2.3824    0.0828 O.3       1 <0>        -0.5320
      2 O2         -2.2774   -1.1849   -1.2212 O.2       1 <0>        -0.5700
      3 N1         -2.7483    0.2913    0.4461 N.am      1 <0>        -0.8000
      4 C1         -0.4562   -0.0678   -0.2059 C.ar      1 <0>         0.0860
      5 C2          0.4897   -1.0780   -0.0089 C.ar      1 <0>         0.0820
      6 C3         -0.0461    1.2719   -0.2664 C.ar      1 <0>        -0.1500
      7 C4          1.8410   -0.7541    0.1296 C.ar      1 <0>        -0.1500
      8 C5          1.3050    1.5926   -0.1280 C.ar      1 <0>        -0.1500
      9 C6          2.2461    0.5811    0.0701 C.ar      1 <0>        -0.1500
     10 C7         -1.8871   -0.3858   -0.3790 C.2       1 <0>         0.5440
     11 H1          0.8754   -2.9561    0.1347 H         1 <0>         0.4500
     12 H2         -3.7407    0.1191    0.3446 H         1 <0>         0.3700
     13 H3         -2.4429    0.9447    1.1549 H         1 <0>         0.3700
     14 H4         -0.7667    2.0666   -0.4412 H         1 <0>         0.1500
     15 H5          2.5908   -1.5229    0.2918 H         1 <0>         0.1500
     16 H6          1.6258    2.6301   -0.1805 H         1 <0>         0.1500
     17 H7          3.2979    0.8346    0.1766 H         1 <0>         0.1500
@<TRIPOS>BOND
     1    1    5 1
     2    1   11 1
     3    2   10 2
     4    3   10 am
     5    3   12 1
     6    3   13 1
     7    4    5 ar
     8    4    6 ar
     9    4   10 1
    10    5    7 ar
    11    6    8 ar
    12    6   14 1
    13    7    9 ar
    14    7   15 1
    15    8    9 ar
    16    8   16 1
    17    9   17 1
