@<TRIPOS>MOLECULE
DB08847
   18    18     0     0     0
SMALL
USER_CHARGES

@<TRIPOS>ATOM
      1 C1         -0.2488    1.1124    0.3431 C.3       1 <0>         0.0000
      2 C2         -1.0946    0.2941   -0.6264 C.3       1 <0>         0.2800
      3 C3         -0.9335   -1.1340   -0.1178 C.3       1 <0>         0.5030
      4 N1          0.4586   -1.1866    0.3945 N.4       1 <0>        -0.9060
      5 C4          0.9750    0.2486    0.5881 C.3       1 <0>         0.3970
      6 C5          2.1111    0.4652   -0.4418 C.2       1 <0>         0.9060
      7 O1          2.2894   -0.6281   -1.0838 O.co2     1 <0>        -0.9000
      8 O2          2.6466    1.5928   -0.5046 O.co2     1 <0>        -0.9000
      9 O3         -2.4490    0.7098   -0.6343 O.3       1 <0>        -0.6800
     10 H1         -0.0147    2.0991   -0.0679 H         1 <0>         0.0000
     11 H2         -0.7895    1.2794    1.2829 H         1 <0>         0.0000
     12 H3         -0.7018    0.3795   -1.6458 H         1 <0>         0.0000
     13 H4         -1.0536   -1.8899   -0.8976 H         1 <0>         0.0000
     14 H5         -1.6034   -1.3559    0.7197 H         1 <0>         0.0000
     15 H6          1.1402   -1.4820   -0.3748 H         1 <0>         0.4500
     16 H7          0.6271   -1.8033    1.1951 H         1 <0>         0.4500
     17 H8          1.3585    0.3222    1.6094 H         1 <0>         0.0000
     18 H9         -2.7177    0.9766    0.2620 H         1 <0>         0.4000
@<TRIPOS>BOND
     1    1    2 1
     2    1    5 1
     3    1   10 1
     4    1   11 1
     5    2    3 1
     6    2    9 1
     7    2   12 1
     8    3    4 1
     9    3   13 1
    10    3   14 1
    11    4    5 1
    12    4   15 1
    13    4   16 1
    14    5    6 1
    15    5   17 1
    16    6    7 2
    17    6    8 1
    18    9   18 1
