@<TRIPOS>MOLECULE
DB08924
   27    27     0     0     0
SMALL
USER_CHARGES

@<TRIPOS>ATOM
      1 C1         -1.3947    0.2274   -0.4429 C.ar      1 <0>        -0.1440
      2 C2          0.1026    0.3373   -0.6136 C.3       1 <0>         0.1440
      3 C3         -2.0627   -0.9707   -0.7354 C.ar      1 <0>        -0.1500
      4 C4         -2.1403    1.3239    0.0149 C.ar      1 <0>        -0.1500
      5 C5          0.8817    0.3139    0.7161 C.3       1 <0>         0.2460
      6 C6         -3.4463   -1.0694   -0.5742 C.ar      1 <0>        -0.1500
      7 C7         -3.5241    1.2242    0.1764 C.ar      1 <0>        -0.1500
      8 C8          0.8275   -1.0318    1.4416 C.3       1 <0>         0.0000
      9 N1          2.2811    0.7484    0.5182 N.2       1 <0>        -0.6960
     10 C9         -4.1756    0.0278   -0.1183 C.ar      1 <0>        -0.1500
     11 C10         3.0593    0.0125   -0.2007 C.2       1 <0>         0.3290
     12 C11         4.5152    0.3327   -0.4739 C.3       1 <0>         0.9310
     13 Cl1         4.6979    0.4361   -2.2411 Cl        1 <0>        -0.2900
     14 Cl2         5.0297    1.8467    0.2855 Cl        1 <0>        -0.2900
     15 Cl3         5.4719   -1.0293    0.1548 Cl        1 <0>        -0.2900
     16 H1          0.3159    1.2727   -1.1487 H         1 <0>         0.0000
     17 H2          0.4553   -0.4606   -1.2782 H         1 <0>         0.0000
     18 H3         -1.5092   -1.8365   -1.0920 H         1 <0>         0.1500
     19 H4         -1.6457    2.2647    0.2471 H         1 <0>         0.1500
     20 H5          0.4384    1.0562    1.3918 H         1 <0>         0.0000
     21 H6         -3.9558   -2.0014   -0.8039 H         1 <0>         0.1500
     22 H7         -4.0935    2.0792    0.5311 H         1 <0>         0.1500
     23 H8          1.1641   -1.8553    0.8027 H         1 <0>         0.0000
     24 H9         -0.1922   -1.2609    1.7688 H         1 <0>         0.0000
     25 H10         1.4665   -1.0186    2.3304 H         1 <0>         0.0000
     26 H11        -5.2525   -0.0492    0.0077 H         1 <0>         0.1500
     27 H12         2.6854   -0.9199   -0.6640 H         1 <0>         0.0600
@<TRIPOS>BOND
     1    1    2 1
     2    1    3 ar
     3    1    4 ar
     4    2    5 1
     5    2   16 1
     6    2   17 1
     7    3    6 ar
     8    3   18 1
     9    4    7 ar
    10    4   19 1
    11    5    8 1
    12    5    9 1
    13    5   20 1
    14    6   10 ar
    15    6   21 1
    16    7   10 ar
    17    7   22 1
    18    8   23 1
    19    8   24 1
    20    8   25 1
    21    9   11 2
    22   10   26 1
    23   11   12 1
    24   11   27 1
    25   12   13 1
    26   12   14 1
    27   12   15 1
