@<TRIPOS>MOLECULE
DB08604
   24    25     0     0     0
SMALL
USER_CHARGES

@<TRIPOS>ATOM
      1 O1         -0.0097   -1.2395    0.4389 O.3       1 <0>        -0.1650
      2 C1         -1.2115   -0.6330    0.1452 C.ar      1 <0>         0.0820
      3 C2          1.1283   -0.4722    0.3140 C.ar      1 <0>         0.0820
      4 C3         -2.2377   -0.6487    1.0979 C.ar      1 <0>         0.1770
      5 C4          2.2607   -1.0983   -0.2176 C.ar      1 <0>         0.0820
      6 C5         -3.4748   -0.0729    0.8068 C.ar      1 <0>        -0.1500
      7 C6          3.4606   -0.4094   -0.3585 C.ar      1 <0>        -0.1500
      8 C7         -1.4390   -0.0746   -1.1180 C.ar      1 <0>        -0.1500
      9 C8          1.2124    0.8542    0.7466 C.ar      1 <0>        -0.1500
     10 C9         -3.6851    0.5034   -0.4456 C.ar      1 <0>         0.1770
     11 C10         3.5301    0.9205    0.0535 C.ar      1 <0>         0.1770
     12 Cl1        -2.0015   -1.3595    2.6532 Cl        1 <0>        -0.1770
     13 O2          2.2198   -2.4042   -0.6199 O.3       1 <0>        -0.5320
     14 C11        -2.6761    0.5022   -1.4093 C.ar      1 <0>        -0.1500
     15 C12         2.4146    1.5528    0.6080 C.ar      1 <0>        -0.1500
     16 Cl2        -5.2086    1.2179   -0.8109 Cl        1 <0>        -0.1770
     17 Cl3         5.0064    1.7887   -0.1132 Cl        1 <0>        -0.1770
     18 H1         -4.2703   -0.0742    1.5476 H         1 <0>         0.1500
     19 H2          4.3255   -0.9102   -0.7814 H         1 <0>         0.1500
     20 H3         -0.6615   -0.0880   -1.8780 H         1 <0>         0.1500
     21 H4          0.3599    1.3526    1.2004 H         1 <0>         0.1500
     22 H5          1.3280   -2.7376   -0.4119 H         1 <0>         0.4500
     23 H6         -2.8461    0.9431   -2.3882 H         1 <0>         0.1500
     24 H7          2.4759    2.5870    0.9405 H         1 <0>         0.1500
@<TRIPOS>BOND
     1    1    2 1
     2    1    3 1
     3    2    4 ar
     4    2    8 ar
     5    3    5 ar
     6    3    9 ar
     7    4    6 ar
     8    4   12 1
     9    5    7 ar
    10    5   13 1
    11    6   10 ar
    12    6   18 1
    13    7   11 ar
    14    7   19 1
    15    8   14 ar
    16    8   20 1
    17    9   15 ar
    18    9   21 1
    19   10   14 ar
    20   10   16 1
    21   11   15 ar
    22   11   17 1
    23   13   22 1
    24   14   23 1
    25   15   24 1
