@<TRIPOS>MOLECULE
DB09112
    3     2     0     0     0
SMALL
USER_CHARGES

@<TRIPOS>ATOM
      1 O1         -1.0853    0.2086    0.0000 O.2       1 <0>        -0.5530
      2 N1          0.0006   -0.4177    0.0000 N.1       1 <0>         0.1060
      3 O2          1.0847    0.2090    0.0000 O.2       1 <0>        -0.5530
@<TRIPOS>BOND
     1    1    2 2
     2    2    3 2
