@<TRIPOS>MOLECULE
DB09257
   12    12     0     0     0
SMALL
USER_CHARGES

@<TRIPOS>ATOM
      1 Cl1        -3.0722   -0.2634   -0.0001 Cl        1 <0>        -0.1400
      2 O1         -1.4537    2.2259   -0.0001 O.3       1 <0>        -0.8500
      3 O2          2.7098    0.0356   -0.0000 O.2       1 <0>        -0.5700
      4 N1          0.7675   -1.1662   -0.0003 N.am      1 <0>        -0.5390
      5 C1         -0.6664    1.2421    0.0003 C.2       1 <0>        -0.1500
      6 C2         -1.3364   -0.0791    0.0002 C.2       1 <0>         0.1400
      7 C3          0.6813    1.2470    0.0003 C.2       1 <0>        -0.1360
      8 C4         -0.6028   -1.2066   -0.0002 C.2       1 <0>        -0.0410
      9 C5          1.4822    0.0071   -0.0002 C.2       1 <0>         0.6160
     10 H1          1.3020   -2.0244    0.0004 H         1 <0>         0.3700
     11 H2          1.2376    2.1764   -0.0002 H         1 <0>         0.1500
     12 H3         -1.0491   -2.1943    0.0000 H         1 <0>         0.1500
@<TRIPOS>BOND
     1    1    6 1
     2    2    5 1
     3    3    9 2
     4    4    8 1
     5    4    9 am
     6    4   10 1
     7    5    6 1
     8    5    7 2
     9    6    8 2
    10    7    9 1
    11    7   11 1
    12    8   12 1
