@<TRIPOS>MOLECULE
DB09133
   28    28     0     0     0
SMALL
USER_CHARGES

@<TRIPOS>ATOM
      1 C1         -4.6232    1.5096    0.0788 C.3       1 <0>         0.0610
      2 C2         -3.5777    0.5268   -0.3783 C.2       1 <0>         0.5690
      3 O1         -3.8415   -0.3525   -1.1908 O.2       1 <0>        -0.5700
      4 N1         -2.3250    0.8109    0.1324 N.am      1 <0>        -0.5470
      5 C3         -1.1715   -0.0106    0.0458 C.ar      1 <0>         0.1170
      6 C4          0.0598    0.6431   -0.1915 C.ar      1 <0>         0.0810
      7 C5          1.2382   -0.0956   -0.4082 C.ar      1 <0>         0.0860
      8 C6          1.2086   -1.4995   -0.3680 C.ar      1 <0>         0.0810
      9 C7          0.0143   -2.1699   -0.0292 C.ar      1 <0>        -0.1790
     10 C8         -1.1670   -1.4174    0.1977 C.ar      1 <0>         0.0810
     11 I1         -2.8338   -2.4241    1.1426 I         1 <0>        -0.0810
     12 C9          0.0090   -3.6586    0.1230 C.2       1 <0>         0.9790
     13 O2         -0.3837   -4.3270   -0.8805 O.co2     1 <0>        -0.9000
     14 O3          0.4082   -4.1078    1.2412 O.co2     1 <0>        -0.9000
     15 I2          2.9792   -2.6215   -0.8104 I         1 <0>        -0.0810
     16 C10         2.5045    0.6131   -0.6868 C.2       1 <0>         0.5440
     17 O4          2.7596    0.9782   -1.8276 O.2       1 <0>        -0.5700
     18 N2          3.2991    0.8142    0.4230 N.am      1 <0>        -0.7300
     19 C11         4.5586    1.5040    0.3193 C.3       1 <0>         0.3000
     20 I3          0.1071    2.7952   -0.2523 I         1 <0>        -0.0810
     21 H1         -4.4316    1.8350    1.1062 H         1 <0>         0.0000
     22 H2         -5.6088    1.0366    0.0460 H         1 <0>         0.0000
     23 H3         -4.6127    2.3802   -0.5829 H         1 <0>         0.0000
     24 H4         -2.1821    1.7299    0.5376 H         1 <0>         0.3700
     25 H5          3.0007    0.4736    1.3296 H         1 <0>         0.3700
     26 H6          4.3669    2.5627    0.1300 H         1 <0>         0.0000
     27 H7          5.1423    1.0870   -0.5064 H         1 <0>         0.0000
     28 H8          5.1024    1.3843    1.2597 H         1 <0>         0.0000
@<TRIPOS>BOND
     1    1    2 1
     2    1   21 1
     3    1   22 1
     4    1   23 1
     5    2    3 2
     6    2    4 am
     7    4    5 1
     8    4   24 1
     9    5    6 ar
    10    5   10 ar
    11    6    7 ar
    12    6   20 1
    13    7    8 ar
    14    7   16 1
    15    8    9 ar
    16    8   15 1
    17    9   10 ar
    18    9   12 1
    19   10   11 1
    20   12   13 2
    21   12   14 1
    22   16   17 2
    23   16   18 am
    24   18   19 1
    25   18   25 1
    26   19   26 1
    27   19   27 1
    28   19   28 1
