@<TRIPOS>MOLECULE
DB09028
   29    31     0     0     0
SMALL
USER_CHARGES

@<TRIPOS>ATOM
      1 C1         -3.2308   -0.8034   -0.0550 C.2       1 <0>        -0.1500
      2 C2         -1.9597   -1.3621    0.3193 C.2       1 <0>        -0.1500
      3 C3         -3.3484    0.4959   -0.3353 C.2       1 <0>        -0.1360
      4 C4          1.3621   -0.1761    1.4882 C.3       1 <0>         0.0000
      5 C5          2.2168    0.6597   -0.7290 C.3       1 <0>         0.5030
      6 C6          1.2003   -1.6280   -0.5452 C.3       1 <0>         0.5030
      7 C7          0.1672    1.6977    0.3671 C.3       1 <0>         0.3000
      8 C8          1.5370    1.0457    0.5894 C.3       1 <0>         0.0000
      9 C9          0.4871   -1.1870    0.7459 C.3       1 <0>         0.1380
     10 C10        -0.8652   -0.5865    0.4094 C.2       1 <0>        -0.0290
     11 C11        -2.1704    1.3844   -0.2374 C.2       1 <0>         0.6160
     12 N1          1.4665   -0.4343   -1.4135 N.4       1 <0>        -0.9060
     13 N2         -0.9632    0.7864    0.1618 N.am      1 <0>        -0.4690
     14 O1         -2.2993    2.5789   -0.4963 O.2       1 <0>        -0.5700
     15 H1          2.1853    1.7754    1.0908 H         1 <0>         0.0000
     16 H2          0.3551   -2.0675    1.3882 H         1 <0>         0.0000
     17 H3         -4.0894   -1.4656   -0.1109 H         1 <0>         0.1500
     18 H4         -1.9230   -2.4315    0.5052 H         1 <0>         0.1500
     19 H5         -4.2884    0.9472   -0.6252 H         1 <0>         0.1500
     20 H6          0.8992    0.1105    2.4407 H         1 <0>         0.0000
     21 H7          2.3381   -0.6168    1.7263 H         1 <0>         0.0000
     22 H8          3.2316    0.2860   -0.5583 H         1 <0>         0.0000
     23 H9          2.2637    1.4997   -1.4299 H         1 <0>         0.0000
     24 H10         2.1692   -2.0922   -0.3342 H         1 <0>         0.0000
     25 H11         0.5958   -2.3211   -1.1400 H         1 <0>         0.0000
     26 H12        -0.0891    2.2917    1.2555 H         1 <0>         0.0000
     27 H13         0.2116    2.4076   -0.4684 H         1 <0>         0.0000
     28 H14         1.9768   -0.7293   -2.2577 H         1 <0>         0.4500
     29 H15         0.5636   -0.0656   -1.7516 H         1 <0>         0.4500
@<TRIPOS>BOND
     1    1    2 1
     2    1    3 2
     3    1   17 1
     4    2   10 2
     5    2   18 1
     6    3   11 1
     7    3   19 1
     8    4    8 1
     9    4    9 1
    10    4   20 1
    11    4   21 1
    12    5    8 1
    13    5   12 1
    14    5   22 1
    15    5   23 1
    16    6    9 1
    17    6   12 1
    18    6   24 1
    19    6   25 1
    20    7    8 1
    21    7   13 1
    22    7   26 1
    23    7   27 1
    24    8   15 1
    25    9   10 1
    26    9   16 1
    27   10   13 1
    28   11   13 am
    29   11   14 2
    30   12   28 1
    31   12   29 1
