@<TRIPOS>MOLECULE
DB09145
    3     2     0     0     0
SMALL
USER_CHARGES

@<TRIPOS>ATOM
      1 O1          0.0006    0.3977   -0.0000 O.3       1 <0>        -0.8600
      2 H1         -0.7638   -0.1986   -0.0000 H         1 <0>         0.4300
      3 H2          0.7632   -0.1991   -0.0000 H         1 <0>         0.4300
@<TRIPOS>BOND
     1    1    2 1
     2    1    3 1
