@<TRIPOS>MOLECULE
DB09314
   12    10     0     0     0
SMALL
USER_CHARGES

@<TRIPOS>ATOM
      1 Tc1        -1.0728    0.2497   -0.0299 Tc        1 <0>         1.0400
      2 Na1         9.6180   -0.3681    0.6146 Na        1 <0>         1.0000
      3 O1          0.6237    0.0401   -0.4744 O.3       1 <0>        -0.8850
      4 O2         -2.6611   -0.4175    0.4898 O.3       1 <0>        -0.5200
      5 H1         -3.3263    0.3054    0.3474 H         1 <0>         0.5670
      6 H2         -2.5706   -0.6293    1.4557 H         1 <0>         0.5670
      7 O3         -0.2533    1.7436   -0.4898 O.3       1 <0>        -0.5200
      8 H3          0.5470    1.1974   -0.8031 H         1 <0>         0.5670
      9 H4          0.0609    2.1403    0.3569 H         1 <0>         0.5670
     10 O4         -0.5657   -1.4340   -0.1523 O.3       1 <0>        -0.5200
     11 H5          0.4012   -1.1228   -0.2433 H         1 <0>         0.5670
     12 H6         -0.8010   -1.7049   -1.0718 H         1 <0>         0.5670
@<TRIPOS>BOND
     1    1    3 1
     2    1    4 1
     3    1    7 1
     4    1   10 1
     5    4    5 1
     6    4    6 1
     7    7    8 1
     8    7    9 1
     9   10   11 1
    10   10   12 1
