@<TRIPOS>MOLECULE
DB09269
   18    18     0     0     0
SMALL
USER_CHARGES

@<TRIPOS>ATOM
      1 C1         -0.0218    0.0008   -0.3790 C.ar      1 <0>        -0.1440
      2 C2          0.6740   -1.2056   -0.2184 C.ar      1 <0>        -0.1500
      3 H1          0.1612   -2.1578   -0.3356 H         1 <0>         0.1500
      4 C3          0.6652    1.2104   -0.2025 C.ar      1 <0>        -0.1500
      5 H2          0.1452    2.1599   -0.3088 H         1 <0>         0.1500
      6 C4         -1.4937   -0.0024   -0.7096 C.3       1 <0>         0.2040
      7 H3         -1.7268   -0.8768   -1.3285 H         1 <0>         0.0000
      8 H4         -1.7332    0.8911   -1.2997 H         1 <0>         0.0000
      9 C5          2.0342   -1.2008    0.0971 C.ar      1 <0>        -0.1500
     10 H5          2.5658   -2.1407    0.2185 H         1 <0>         0.1500
     11 C6          2.0249    1.2125    0.1113 C.ar      1 <0>        -0.1500
     12 H6          2.5500    2.1543    0.2438 H         1 <0>         0.1500
     13 C7         -2.3875   -0.0263    0.5049 C.2       1 <0>         0.6590
     14 C8          2.7097    0.0070    0.2597 C.ar      1 <0>        -0.1500
     15 H7          3.7676    0.0094    0.5066 H         1 <0>         0.1500
     16 O1         -3.6911    0.0511    0.1565 O.3       1 <0>        -0.6500
     17 H8         -4.1797    0.0242    1.0066 H         1 <0>         0.5000
     18 O2         -2.0639   -0.1104    1.6772 O.2       1 <0>        -0.5700
@<TRIPOS>BOND
     1    1    2 ar
     2    1    4 ar
     3    1    6 1
     4    2    3 1
     5    2    9 ar
     6    4    5 1
     7    4   11 ar
     8    6    7 1
     9    6    8 1
    10    6   13 1
    11    9   10 1
    12    9   14 ar
    13   11   12 1
    14   11   14 ar
    15   13   16 1
    16   13   18 2
    17   14   15 1
    18   16   17 1
