@<TRIPOS>MOLECULE
DB09216
   29    30     0     0     0
SMALL
USER_CHARGES

@<TRIPOS>ATOM
      1 C1         -1.1176    1.4757    1.4504 C.3       1 <0>         0.1440
      2 C2          3.6446    1.1295   -0.7606 C.ar      1 <0>        -0.1500
      3 C3          2.4257    1.6691   -1.1611 C.ar      1 <0>        -0.1500
      4 C4         -3.4358   -1.2684   -0.9692 C.ar      1 <0>        -0.1500
      5 C5          3.6800   -0.0928   -0.0894 C.ar      1 <0>        -0.1500
      6 C6         -4.0154   -0.1059   -0.4756 C.ar      1 <0>        -0.1500
      7 C7          1.2364    0.9931   -0.8793 C.ar      1 <0>        -0.1500
      8 C8         -2.0874   -1.5159   -0.7288 C.ar      1 <0>        -0.1500
      9 C9         -1.8937    0.5383    0.5606 C.ar      1 <0>        -0.1440
     10 C10         2.4929   -0.7885    0.1981 C.ar      1 <0>        -0.1790
     11 C11        -3.2535    0.7891    0.2813 C.ar      1 <0>         0.1770
     12 C12        -1.2947   -0.6134    0.0032 C.ar      1 <0>         0.1000
     13 C13         1.2495   -0.2266   -0.1886 C.ar      1 <0>         0.1000
     14 C14         2.5423   -2.1342    0.8935 C.2       1 <0>         0.9790
     15 Cl1        -4.0562    2.2152    0.8531 Cl        1 <0>        -0.1770
     16 N1          0.0644   -0.9283    0.1324 N.pl3     1 <0>        -0.6000
     17 O1          1.4177   -2.7293    1.0398 O.co2     1 <0>        -0.9000
     18 O2          3.6754   -2.5695    1.2673 O.co2     1 <0>        -0.9000
     19 H1         -1.7117    1.7641    2.3238 H         1 <0>         0.0000
     20 H2         -0.8348    2.3762    0.8971 H         1 <0>         0.0000
     21 H3         -0.2152    1.0113    1.8577 H         1 <0>         0.0000
     22 H4          4.5704    1.6539   -0.9779 H         1 <0>         0.1500
     23 H5          2.3982    2.6142   -1.6948 H         1 <0>         0.1500
     24 H6         -4.0247   -1.9723   -1.5498 H         1 <0>         0.1500
     25 H7          4.6380   -0.5155    0.2088 H         1 <0>         0.1500
     26 H8         -5.0639    0.0941   -0.6776 H         1 <0>         0.1500
     27 H9          0.2976    1.4232   -1.2144 H         1 <0>         0.1500
     28 H10        -1.6304   -2.4161   -1.1391 H         1 <0>         0.1500
     29 H11         0.3018   -1.8705    0.5389 H         1 <0>         0.4000
@<TRIPOS>BOND
     1    1    9 1
     2    1   19 1
     3    1   20 1
     4    1   21 1
     5    2    3 ar
     6    2    5 ar
     7    2   22 1
     8    3    7 ar
     9    3   23 1
    10    4    6 ar
    11    4    8 ar
    12    4   24 1
    13    5   10 ar
    14    5   25 1
    15    6   11 ar
    16    6   26 1
    17    7   13 ar
    18    7   27 1
    19    8   12 ar
    20    8   28 1
    21    9   11 ar
    22    9   12 ar
    23   10   13 ar
    24   10   14 1
    25   11   15 1
    26   12   16 1
    27   13   16 1
    28   14   17 2
    29   14   18 1
    30   16   29 1
