@<TRIPOS>MOLECULE
DB09157
    3     2     0     0     0
SMALL
USER_CHARGES

@<TRIPOS>ATOM
      1 C1          0.0000    0.0000    0.0000 C.1       1 <0>         0.9740
      2 O1          1.1760    0.0000    0.0000 O.2       1 <0>        -0.4870
      3 O2         -1.1760    0.0000    0.0000 O.2       1 <0>        -0.4870
@<TRIPOS>BOND
     1    1    2 2
     2    1    3 2
