@<TRIPOS>MOLECULE
DB09210
   20    20     0     0     0
SMALL
USER_CHARGES

@<TRIPOS>ATOM
      1 C1          2.4397    0.3207   -0.0018 C.3       1 <0>         0.0000
      2 C2          1.9648   -1.1236    0.0051 C.3       1 <0>         0.0610
      3 C3          1.1924    1.1834    0.0001 C.3       1 <0>         0.3000
      4 C4         -1.2865    0.8144   -0.0024 C.3       1 <0>         0.3610
      5 C5         -2.5641   -0.0069    0.0008 C.2       1 <0>         0.5390
      6 C6          0.4659   -1.0441   -0.0009 C.2       1 <0>         0.5690
      7 N1         -3.7224    0.5570    0.0090 N.2       1 <0>        -0.8500
      8 N2          0.0727    0.2730   -0.0007 N.am      1 <0>        -0.6600
      9 O1         -2.5533   -1.3349   -0.0085 O.3       1 <0>        -0.6000
     10 O2         -0.2862   -2.0086   -0.0036 O.2       1 <0>        -0.5700
     11 H1          3.0562    0.5259   -0.8841 H         1 <0>         0.0000
     12 H2          3.0650    0.5328    0.8719 H         1 <0>         0.0000
     13 H3          2.3000   -1.6498    0.9048 H         1 <0>         0.0000
     14 H4          2.3081   -1.6612   -0.8831 H         1 <0>         0.0000
     15 H5          1.1418    1.8176   -0.8907 H         1 <0>         0.0000
     16 H6          1.1417    1.8150    0.8923 H         1 <0>         0.0000
     17 H7         -1.3474    1.4669    0.8788 H         1 <0>         0.0000
     18 H8         -1.3473    1.4632   -0.8852 H         1 <0>         0.0000
     19 H9         -4.3976   -0.2182    0.0081 H         1 <0>         0.4000
     20 H10        -1.6432   -1.7224   -0.0100 H         1 <0>         0.4500
@<TRIPOS>BOND
     1    1    2 1
     2    1    3 1
     3    1   11 1
     4    1   12 1
     5    2    6 1
     6    2   13 1
     7    2   14 1
     8    3    8 1
     9    3   15 1
    10    3   16 1
    11    4    5 1
    12    4    8 1
    13    4   17 1
    14    4   18 1
    15    5    7 2
    16    5    9 1
    17    6    8 am
    18    6   10 2
    19    7   19 1
    20    9   20 1
