@<TRIPOS>MOLECULE
DB09245
   28    29     0     0     0
SMALL
USER_CHARGES

@<TRIPOS>ATOM
      1 C1         -2.9802   -1.7359   -0.0651 C.ar      1 <0>        -0.1500
      2 C2         -3.5841   -0.4818   -0.0606 C.ar      1 <0>        -0.1500
      3 C3         -2.7988    0.6709   -0.0379 C.ar      1 <0>        -0.1440
      4 C4         -1.3992    0.5443    0.0086 C.ar      1 <0>        -0.1500
      5 C5         -0.7688   -0.7132    0.0068 C.ar      1 <0>         0.1170
      6 C6         -1.5862   -1.8499   -0.0343 C.ar      1 <0>        -0.1500
      7 C7         -3.4365    2.0279   -0.0072 C.3       1 <0>         0.1440
      8 N1          0.6485   -0.8102    0.0457 N.am      1 <0>        -0.4770
      9 C8          1.5039    0.3336    0.1782 C.3       1 <0>         0.3000
     10 C9          2.8561   -0.2765    0.4705 C.3       1 <0>         0.2800
     11 O1          2.7505   -1.6370    0.0446 O.3       1 <0>        -0.4300
     12 C10         1.4195   -1.9602   -0.0651 C.2       1 <0>         0.7800
     13 O2          1.0606   -3.1116   -0.2552 O.2       1 <0>        -0.5700
     14 C11         3.9935    0.4206   -0.2590 C.3       1 <0>         0.2800
     15 O3          4.0338    1.7890    0.1164 O.3       1 <0>        -0.6800
     16 H1         -3.5923   -2.6336   -0.0876 H         1 <0>         0.1500
     17 H2         -4.6683   -0.4117   -0.0781 H         1 <0>         0.1500
     18 H3         -0.8139    1.4604    0.0342 H         1 <0>         0.1500
     19 H4         -1.1721   -2.8528   -0.0304 H         1 <0>         0.1500
     20 H5         -4.4372    2.0047   -0.4514 H         1 <0>         0.0000
     21 H6         -2.8435    2.7480   -0.5807 H         1 <0>         0.0000
     22 H7         -3.5201    2.3783    1.0270 H         1 <0>         0.0000
     23 H8          1.4890    0.8891   -0.7661 H         1 <0>         0.0000
     24 H9          1.1895    0.9888    0.9974 H         1 <0>         0.0000
     25 H10         3.0475   -0.2718    1.5508 H         1 <0>         0.0000
     26 H11         3.8686    0.3494   -1.3451 H         1 <0>         0.0000
     27 H12         4.9505   -0.0497   -0.0091 H         1 <0>         0.0000
     28 H13         4.7897    2.1911   -0.3475 H         1 <0>         0.4000
@<TRIPOS>BOND
     1    1    2 ar
     2    1    6 ar
     3    1   16 1
     4    2    3 ar
     5    2   17 1
     6    3    4 ar
     7    3    7 1
     8    4    5 ar
     9    4   18 1
    10    5    6 ar
    11    5    8 1
    12    6   19 1
    13    7   20 1
    14    7   21 1
    15    7   22 1
    16    8    9 1
    17    8   12 am
    18    9   10 1
    19    9   23 1
    20    9   24 1
    21   10   11 1
    22   10   14 1
    23   10   25 1
    24   11   12 1
    25   12   13 2
    26   14   15 1
    27   14   26 1
    28   14   27 1
    29   15   28 1
