@<TRIPOS>MOLECULE
DB09086
   24    24     0     0     0
SMALL
USER_CHARGES

@<TRIPOS>ATOM
      1 O1         -2.9844   -0.4735    0.2395 O.3       1 <0>        -0.3630
      2 O2         -2.9078    2.1947    0.4538 O.3       1 <0>        -0.5320
      3 C1          0.6154    0.1744   -0.4697 C.ar      1 <0>        -0.1440
      4 C2          1.8985   -0.5584   -0.7853 C.3       1 <0>         0.2820
      5 C3         -0.5819   -0.5371   -0.2730 C.ar      1 <0>        -0.1500
      6 C4         -1.7723    0.1318    0.0355 C.ar      1 <0>         0.0820
      7 C5          0.6118    1.5689   -0.3393 C.ar      1 <0>        -0.1500
      8 C6         -1.7487    1.5283    0.1526 C.ar      1 <0>         0.0820
      9 C7         -0.5665    2.2477   -0.0304 C.ar      1 <0>        -0.1500
     10 C8          2.7122   -0.8386    0.4459 C.2       1 <0>        -0.2880
     11 C9         -3.0423   -1.8871    0.1066 C.3       1 <0>         0.2800
     12 C10         3.9622   -0.3986    0.6398 C.2       1 <0>        -0.3000
     13 H1         -2.7262    3.1468    0.4965 H         1 <0>         0.4500
     14 H2          2.4731    0.0248   -1.5179 H         1 <0>         0.0000
     15 H3          1.6689   -1.5090   -1.2815 H         1 <0>         0.0000
     16 H4         -0.5564   -1.6190   -0.3659 H         1 <0>         0.1500
     17 H5          1.5324    2.1335   -0.4752 H         1 <0>         0.1500
     18 H6         -0.5430    3.3290    0.0639 H         1 <0>         0.1500
     19 H7          2.2451   -1.4480    1.2174 H         1 <0>         0.1500
     20 H8         -4.0759   -2.1982    0.2860 H         1 <0>         0.0000
     21 H9         -2.4128   -2.3807    0.8550 H         1 <0>         0.0000
     22 H10        -2.7737   -2.2007   -0.9076 H         1 <0>         0.0000
     23 H11         4.4972   -0.6394    1.5526 H         1 <0>         0.1500
     24 H12         4.4749    0.2083   -0.0990 H         1 <0>         0.1500
@<TRIPOS>BOND
     1    1    6 1
     2    1   11 1
     3    2    8 1
     4    2   13 1
     5    3    4 1
     6    3    5 ar
     7    3    7 ar
     8    4   10 1
     9    4   14 1
    10    4   15 1
    11    5    6 ar
    12    5   16 1
    13    6    8 ar
    14    7    9 ar
    15    7   17 1
    16    8    9 ar
    17    9   18 1
    18   10   12 2
    19   10   19 1
    20   11   20 1
    21   11   21 1
    22   11   22 1
    23   12   23 1
    24   12   24 1
