@<TRIPOS>MOLECULE
DB09151
   30    32     0     0     0
SMALL
USER_CHARGES

@<TRIPOS>ATOM
      1 C1         -1.5063    1.5575    0.0728 C.ar      1 <0>        -0.1500
      2 C2         -0.7645    0.3731    0.0125 C.ar      1 <0>         0.0530
      3 C3         -1.4805   -0.8353   -0.0440 C.ar      1 <0>        -0.1500
      4 C4         -2.8844   -0.8622   -0.0453 C.ar      1 <0>        -0.1500
      5 C5         -3.6285    0.3171    0.0112 C.ar      1 <0>         0.1000
      6 C6         -2.9041    1.5162    0.0714 C.ar      1 <0>         0.1900
      7 N1         -5.0113    0.3522    0.0122 N.pl3     1 <0>        -0.8690
      8 C7         -5.8609   -0.8120   -0.0407 C.3       1 <0>         0.3690
      9 F1         -3.5720    2.6815    0.1298 F         1 <0>        -0.1900
     10 C8          0.7129    0.3276    0.0094 C.2       1 <0>         0.3250
     11 S1          1.6771    1.7529   -0.0901 S.3       1 <0>        -0.0800
     12 C9          3.1135    0.8103   -0.0460 C.ar      1 <0>         0.0400
     13 C10         2.7659   -0.5370    0.0400 C.ar      1 <0>         0.2270
     14 N2          1.4058   -0.7938    0.0687 N.2       1 <0>        -0.5650
     15 C11         4.4533    1.2295   -0.0863 C.ar      1 <0>        -0.1500
     16 C12         5.4441    0.2484   -0.0362 C.ar      1 <0>         0.0820
     17 C13         5.1324   -1.1023    0.0505 C.ar      1 <0>        -0.1500
     18 C14         3.7927   -1.5044    0.0897 C.ar      1 <0>        -0.1500
     19 O1          6.7431    0.6713   -0.0752 O.3       1 <0>        -0.5320
     20 H1         -1.0377    2.5350    0.1259 H         1 <0>         0.1500
     21 H2         -0.9451   -1.7842   -0.0896 H         1 <0>         0.1500
     22 H3         -3.3785   -1.8295   -0.0914 H         1 <0>         0.1500
     23 H4         -5.4486    1.2684    0.0541 H         1 <0>         0.4000
     24 H5         -5.6967   -1.4605    0.8260 H         1 <0>         0.0000
     25 H6         -5.6936   -1.3825   -0.9595 H         1 <0>         0.0000
     26 H7         -6.9102   -0.4999   -0.0281 H         1 <0>         0.0000
     27 H8          4.7152    2.2803   -0.1546 H         1 <0>         0.1500
     28 H9          5.9094   -1.8601    0.0889 H         1 <0>         0.1500
     29 H10         3.5299   -2.5552    0.1570 H         1 <0>         0.1500
     30 H11         7.3275   -0.1027   -0.0331 H         1 <0>         0.4500
@<TRIPOS>BOND
     1    1    2 ar
     2    1    6 ar
     3    1   20 1
     4    2    3 ar
     5    2   10 1
     6    3    4 ar
     7    3   21 1
     8    4    5 ar
     9    4   22 1
    10    5    6 ar
    11    5    7 1
    12    6    9 1
    13    7    8 1
    14    7   23 1
    15    8   24 1
    16    8   25 1
    17    8   26 1
    18   10   11 1
    19   10   14 2
    20   11   12 1
    21   12   13 ar
    22   12   15 ar
    23   13   14 1
    24   13   18 ar
    25   15   16 ar
    26   15   27 1
    27   16   17 ar
    28   16   19 1
    29   17   18 ar
    30   17   28 1
    31   18   29 1
    32   19   30 1
