@<TRIPOS>MOLECULE
DB09117
   21    21     0     0     0
SMALL
USER_CHARGES

@<TRIPOS>ATOM
      1 C1         -2.7715   -0.0152   -0.2571 C.3       1 <0>         0.0000
      2 C2          1.3594    2.3279    0.0141 C.3       1 <0>         0.0000
      3 C3          1.5135   -2.1023   -0.2851 C.3       1 <0>         0.0000
      4 C4         -1.3858   -0.0178    0.3624 C.3       1 <0>         0.5600
      5 C5          0.6513    0.9999   -0.1901 C.3       1 <0>         0.5600
      6 C6          0.5875   -1.2189    0.5338 C.3       1 <0>         0.5600
      7 O1         -0.7424    1.2048    0.0167 O.3       1 <0>        -0.5600
      8 O2         -0.6763   -1.1504   -0.1206 O.3       1 <0>        -0.5600
      9 O3          1.1893    0.0580    0.7297 O.3       1 <0>        -0.5600
     10 H1         -3.3542    0.8447    0.0878 H         1 <0>         0.0000
     11 H2         -3.3098   -0.9374   -0.0165 H         1 <0>         0.0000
     12 H3         -2.7057    0.0503   -1.3486 H         1 <0>         0.0000
     13 H4          0.9727    3.0876   -0.6727 H         1 <0>         0.0000
     14 H5          2.4382    2.2227   -0.1318 H         1 <0>         0.0000
     15 H6          1.2001    2.6967    1.0333 H         1 <0>         0.0000
     16 H7          1.0877   -3.1027   -0.4120 H         1 <0>         0.0000
     17 H8          2.4972   -2.1839    0.1887 H         1 <0>         0.0000
     18 H9          1.6653   -1.6849   -1.2864 H         1 <0>         0.0000
     19 H10        -1.4829   -0.0715    1.4543 H         1 <0>         0.0000
     20 H11         0.8200    0.6651   -1.2217 H         1 <0>         0.0000
     21 H12         0.4463   -1.6727    1.5218 H         1 <0>         0.0000
@<TRIPOS>BOND
     1    1    4 1
     2    1   10 1
     3    1   11 1
     4    1   12 1
     5    2    5 1
     6    2   13 1
     7    2   14 1
     8    2   15 1
     9    3    6 1
    10    3   16 1
    11    3   17 1
    12    3   18 1
    13    4    7 1
    14    4    8 1
    15    4   19 1
    16    5    7 1
    17    5    9 1
    18    5   20 1
    19    6    8 1
    20    6    9 1
    21    6   21 1
