@<TRIPOS>MOLECULE
DB09281
   13    10     0     0     0
SMALL
USER_CHARGES

@<TRIPOS>ATOM
      1 Si1        -1.3124    0.0967   -0.0979 Si        1 <0>         0.6950
      2 Si2         0.8428    2.3616   -0.2977 Si        1 <0>         1.4490
      3 Si3         0.8561   -2.1056    0.4100 Si        1 <0>         1.4490
      4 Mg1        -3.7707   -0.1139    0.2455 Mg        1 <0>         2.0000
      5 Mg2         2.3508    0.4287    0.2111 Mg        1 <0>         2.0000
      6 O1         -0.6053    1.5648   -0.2137 O.3       1 <0>        -0.5950
      7 O2         -0.4024   -1.2481   -0.2433 O.3       1 <0>        -0.5950
      8 O3         -2.3378    0.0009    1.1993 O.3       1 <0>        -1.0500
      9 O4         -2.6609    0.0205   -1.0594 O.3       1 <0>        -1.0500
     10 O5          1.7224    1.7451    0.8919 O.3       1 <0>        -1.0760
     11 O6          2.0172   -1.0254    0.6074 O.3       1 <0>        -1.0760
     12 O7          1.8571    1.3448   -1.0068 O.2       1 <0>        -1.0760
     13 O8          1.4433   -3.0701   -0.6465 O.2       1 <0>        -1.0760
@<TRIPOS>BOND
     1    1    6 1
     2    1    7 1
     3    1    8 1
     4    1    9 1
     5    2    6 1
     6    2   10 1
     7    2   12 2
     8    3    7 1
     9    3   11 1
    10    3   13 2
