@<TRIPOS>MOLECULE
DB09150
   23    23     0     0     0
SMALL
USER_CHARGES

@<TRIPOS>ATOM
      1 C1          1.6153    0.5782    0.5648 C.3       1 <0>         0.3400
      2 C2          1.2934   -0.7218   -0.1590 C.3       1 <0>         0.2800
      3 C3         -0.1552   -1.1306    0.1084 C.3       1 <0>         0.2800
      4 C4         -1.0997    0.0239   -0.2344 C.3       1 <0>         0.2800
      5 O1         -0.7373    1.2115    0.4970 O.3       1 <0>        -0.5600
      6 C5          0.5901    1.6586    0.2210 C.3       1 <0>         0.5600
      7 O2          0.7184    2.0541   -1.1418 O.3       1 <0>        -0.6800
      8 F1          2.8498    0.9999    0.1605 F         1 <0>        -0.3400
      9 O3         -0.4611   -2.2912   -0.6619 O.3       1 <0>        -0.6800
     10 O4          2.1433   -1.7814    0.3004 O.3       1 <0>        -0.6800
     11 C6         -2.5480   -0.3023    0.1360 C.3       1 <0>         0.2800
     12 O5         -3.3744    0.8238   -0.1640 O.3       1 <0>        -0.6800
     13 H1          1.6579    0.4082    1.6467 H         1 <0>         0.0000
     14 H2          1.4780   -0.6290   -1.2360 H         1 <0>         0.0000
     15 H3         -0.2629   -1.4068    1.1658 H         1 <0>         0.0000
     16 H4         -1.0719    0.2502   -1.3078 H         1 <0>         0.0000
     17 H5          0.7783    2.5489    0.8287 H         1 <0>         0.0000
     18 H6          1.6738    2.1506   -1.3114 H         1 <0>         0.4000
     19 H7          0.2864   -2.9044   -0.5136 H         1 <0>         0.4000
     20 H8          3.0629   -1.4796    0.1783 H         1 <0>         0.4000
     21 H9         -2.6469   -0.4985    1.2097 H         1 <0>         0.0000
     22 H10        -2.9273   -1.1654   -0.4188 H         1 <0>         0.0000
     23 H11        -2.8631    1.6031    0.1313 H         1 <0>         0.4000
@<TRIPOS>BOND
     1    1    2 1
     2    1    6 1
     3    1    8 1
     4    1   13 1
     5    2    3 1
     6    2   10 1
     7    2   14 1
     8    3    4 1
     9    3    9 1
    10    3   15 1
    11    4    5 1
    12    4   11 1
    13    4   16 1
    14    5    6 1
    15    6    7 1
    16    6   17 1
    17    7   18 1
    18    9   19 1
    19   10   20 1
    20   11   12 1
    21   11   21 1
    22   11   22 1
    23   12   23 1
