@<TRIPOS>MOLECULE
DB09256
   23    24     0     0     0
SMALL
USER_CHARGES

@<TRIPOS>ATOM
      1 C1         -2.8654    0.2977   -0.3877 C.3       1 <0>         0.0000
      2 C2         -1.4675    0.7462   -0.7303 C.3       1 <0>         0.0000
      3 C3         -0.7089    0.4044    0.5449 C.3       1 <0>         0.5800
      4 O1         -1.3590   -0.7488    1.1115 O.3       1 <0>        -0.5600
      5 C4         -2.6011   -0.9531    0.4236 C.3       1 <0>         0.2800
      6 N1          0.7110    0.1596    0.3115 N.am      1 <0>        -0.4690
      7 C5          1.1834   -1.1199    0.0755 C.2       1 <0>        -0.0410
      8 C6          2.4728   -1.3630   -0.1440 C.2       1 <0>         0.1640
      9 C7          3.4406   -0.2606   -0.1434 C.2       1 <0>         0.6160
     10 O2          4.6389   -0.4341   -0.3371 O.2       1 <0>        -0.5700
     11 N2          2.8961    0.9805    0.0861 N.am      1 <0>        -0.4900
     12 C8          1.5648    1.2637    0.3127 C.2       1 <0>         0.6900
     13 O3          1.1971    2.4239    0.4892 O.2       1 <0>        -0.5700
     14 F1          2.9433   -2.6024   -0.3749 F         1 <0>        -0.1500
     15 H1         -3.4957    0.1145   -1.2618 H         1 <0>         0.0000
     16 H2         -3.3544    1.0533    0.2376 H         1 <0>         0.0000
     17 H3         -1.4012    1.8063   -0.9937 H         1 <0>         0.0000
     18 H4         -1.0912    0.1659   -1.5822 H         1 <0>         0.0000
     19 H5         -0.8202    1.2175    1.2744 H         1 <0>         0.0000
     20 H6         -2.4840   -1.8275   -0.2245 H         1 <0>         0.0000
     21 H7         -3.3944   -1.1591    1.1478 H         1 <0>         0.0000
     22 H8          0.4641   -1.9316    0.0760 H         1 <0>         0.1500
     23 H9          3.5310    1.7665    0.0889 H         1 <0>         0.3700
@<TRIPOS>BOND
     1    1    2 1
     2    1    5 1
     3    1   15 1
     4    1   16 1
     5    2    3 1
     6    2   17 1
     7    2   18 1
     8    3    4 1
     9    3    6 1
    10    3   19 1
    11    4    5 1
    12    5   20 1
    13    5   21 1
    14    6    7 1
    15    6   12 am
    16    7    8 2
    17    7   22 1
    18    8    9 1
    19    8   14 1
    20    9   10 2
    21    9   11 am
    22   11   12 am
    23   11   23 1
    24   12   13 2
