@<TRIPOS>MOLECULE
DB09110
   12    11     0     0     0
SMALL
USER_CHARGES

@<TRIPOS>ATOM
      1 S1         -1.7237    0.0487    0.1413 S.o2      1 <0>         1.3450
      2 O1         -1.6242    0.4086    1.5542 O.2       1 <0>        -0.8170
      3 C1         -0.0791   -0.4933   -0.2584 C.3       1 <0>         0.1050
      4 C2          0.9337    0.6161   -0.0414 C.3       1 <0>         0.2300
      5 S2          2.6149    0.0281   -0.4217 S.3       1 <0>        -0.4100
      6 O2         -2.5331   -1.1364   -0.1340 O.2       1 <0>        -0.8170
      7 O3         -1.9408    1.1687   -0.7705 O.3       1 <0>        -0.8170
      8 H1         -0.0952   -0.8233   -1.3029 H         1 <0>         0.0000
      9 H2          0.1320   -1.3600    0.3800 H         1 <0>         0.0000
     10 H3          0.9228    0.9680    0.9945 H         1 <0>         0.0000
     11 H4          0.7206    1.4749   -0.6861 H         1 <0>         0.0000
     12 H5          2.6722   -0.9001    0.5450 H         1 <0>         0.1800
@<TRIPOS>BOND
     1    1    2 2
     2    1    3 1
     3    1    6 2
     4    1    7 1
     5    3    4 1
     6    3    8 1
     7    3    9 1
     8    4    5 1
     9    4   10 1
    10    4   11 1
    11    5   12 1
