@<TRIPOS>MOLECULE
DB09159
   18    17     0     0     0
SMALL
USER_CHARGES

@<TRIPOS>ATOM
      1 C1         -0.0094   -0.3956   -0.1516 C.3       1 <0>         0.1740
      2 C2          0.7678    0.8456    0.3174 C.3       1 <0>        -0.1060
      3 C3         -1.5048   -0.3737    0.2026 C.3       1 <0>        -0.1060
      4 C4          0.5208   -1.7265    0.5251 C.2       1 <0>         0.9060
      5 O1          0.1296   -0.4916   -1.5900 O.3       1 <0>        -0.6800
      6 C5          2.2341    0.8091   -0.1364 C.2       1 <0>         0.9060
      7 C6         -2.3006    0.8887   -0.1356 C.2       1 <0>         0.9060
      8 O2          0.2960   -2.8091   -0.0992 O.co2     1 <0>        -0.9000
      9 O3          1.0791   -1.5912    1.6564 O.co2     1 <0>        -0.9000
     10 O4          3.0411    1.5096    0.5373 O.co2     1 <0>        -0.9000
     11 O5          2.4429    0.1317   -1.1957 O.co2     1 <0>        -0.9000
     12 O6         -3.0385    0.8233   -1.1622 O.co2     1 <0>        -0.9000
     13 O7         -2.2043    1.8353    0.7009 O.co2     1 <0>        -0.9000
     14 H1          0.7160    0.9639    1.4055 H         1 <0>         0.0000
     15 H2          0.3509    1.7505   -0.1422 H         1 <0>         0.0000
     16 H3         -1.6347   -0.5434    1.2814 H         1 <0>         0.0000
     17 H4         -2.0081   -1.2140   -0.2956 H         1 <0>         0.0000
     18 H5          1.1221   -0.4126   -1.7182 H         1 <0>         0.4000
@<TRIPOS>BOND
     1    1    2 1
     2    1    3 1
     3    1    4 1
     4    1    5 1
     5    2    6 1
     6    2   14 1
     7    2   15 1
     8    3    7 1
     9    3   16 1
    10    3   17 1
    11    4    8 2
    12    4    9 1
    13    5   18 1
    14    6   10 2
    15    6   11 1
    16    7   12 2
    17    7   13 1
