@<TRIPOS>MOLECULE
DB09138
   11    10     0     0     0
SMALL
USER_CHARGES

@<TRIPOS>ATOM
      1 P1         -1.9248   -0.0001   -0.1578 P.3       1 <0>         1.1000
      2 C1          0.0002    0.0001    0.8947 C.3       1 <0>         0.0000
      3 O1         -1.9334    1.2962   -0.9593 O.2       1 <0>        -1.0330
      4 O2         -2.8557    0.0056    1.0613 O.3       1 <0>        -1.0330
      5 O3         -1.9360   -1.3034   -0.9494 O.3       1 <0>        -1.0330
      6 H1          0.0008    1.0329    0.5588 H         1 <0>         0.0000
      7 H2         -0.0008   -1.0316    0.5574 H         1 <0>         0.0000
      8 P2          1.9253    0.0000   -0.1574 P.3       1 <0>         1.1000
      9 O4          1.9164    1.2760   -0.9912 O.2       1 <0>        -1.0330
     10 O5          2.8556    0.0467    1.0602 O.3       1 <0>        -1.0330
     11 O6          1.9523   -1.3225   -0.9172 O.3       1 <0>        -1.0330
@<TRIPOS>BOND
     1    1    2 1
     2    1    3 2
     3    1    4 1
     4    1    5 1
     5    2    6 1
     6    2    7 1
     7    2    8 1
     8    8    9 2
     9    8   10 1
    10    8   11 1
