@<TRIPOS>MOLECULE
DB09220
   24    24     0     0     0
SMALL
USER_CHARGES

@<TRIPOS>ATOM
      1 C1          4.3331    0.7683    0.3316 C.ar      1 <0>         0.1600
      2 C2          4.1276   -0.6023    0.3844 C.ar      1 <0>        -0.1500
      3 C3          2.8318   -1.0795    0.2114 C.ar      1 <0>        -0.1500
      4 C4          1.7932   -0.1762   -0.0170 C.ar      1 <0>         0.0860
      5 C5          2.0973    1.1780   -0.0330 C.ar      1 <0>         0.1600
      6 N1          3.3476    1.6712    0.1279 N.ar      1 <0>        -0.6200
      7 C6          0.4110   -0.6775   -0.1761 C.2       1 <0>         0.5440
      8 N2         -0.4286    0.0646   -0.9851 N.am      1 <0>        -0.7300
      9 C7         -1.8278   -0.2851   -1.1307 C.3       1 <0>         0.3000
     10 C8         -2.6549    0.1266    0.0860 C.3       1 <0>         0.2800
     11 O1         -4.0187   -0.2006   -0.1703 O.3       1 <0>        -0.2710
     12 N3         -4.8744    0.1531    0.9021 N.pl3     1 <0>         1.0310
     13 O2         -6.0507   -0.1405    0.6890 O.2       1 <0>        -0.5200
     14 O3          0.0738   -1.7074    0.3972 O.2       1 <0>        -0.5700
     15 O4         -4.3631    0.6990    1.8818 O.2       1 <0>        -0.5200
     16 H1          5.3263    1.1887    0.4594 H         1 <0>         0.1500
     17 H2          4.9539   -1.2820    0.5603 H         1 <0>         0.1500
     18 H3          2.6358   -2.1487    0.2549 H         1 <0>         0.1500
     19 H4          1.3362    1.9428   -0.1536 H         1 <0>         0.1500
     20 H5         -0.0846    0.8607   -1.5068 H         1 <0>         0.3700
     21 H6         -1.9164   -1.3648   -1.2999 H         1 <0>         0.0000
     22 H7         -2.2035    0.2121   -2.0326 H         1 <0>         0.0000
     23 H8         -2.5466    1.2073    0.2446 H         1 <0>         0.0000
     24 H9         -2.2984   -0.4079    0.9745 H         1 <0>         0.0000
@<TRIPOS>BOND
     1    1    2 ar
     2    1    6 ar
     3    1   16 1
     4    2    3 ar
     5    2   17 1
     6    3    4 ar
     7    3   18 1
     8    4    5 ar
     9    4    7 1
    10    5    6 ar
    11    5   19 1
    12    7    8 am
    13    7   14 2
    14    8    9 1
    15    8   20 1
    16    9   10 1
    17    9   21 1
    18    9   22 1
    19   10   11 1
    20   10   23 1
    21   10   24 1
    22   11   12 1
    23   12   13 2
    24   12   15 2
