@<TRIPOS>MOLECULE
DB09218
   28    29     0     0     0
SMALL
USER_CHARGES

@<TRIPOS>ATOM
      1 C1         -3.8291    0.1891    0.0230 C.ar      1 <0>        -0.1500
      2 C2         -4.0224   -1.1597   -0.2339 C.ar      1 <0>        -0.1500
      3 C3         -2.9009   -1.9508   -0.3747 C.ar      1 <0>         0.1600
      4 N1         -1.6333   -1.4954   -0.2740 N.ar      1 <0>        -0.6200
      5 C4         -1.4390   -0.1762   -0.0183 C.ar      1 <0>         0.4100
      6 C5         -2.5292    0.7045    0.1313 C.ar      1 <0>        -0.1790
      7 C6          1.3362   -1.5968    0.2885 C.ar      1 <0>        -0.1500
      8 C7          1.1565   -0.2145    0.1068 C.ar      1 <0>         0.1000
      9 N2         -0.1282    0.3572    0.0998 N.pl3     1 <0>        -0.6000
     10 C8          2.6017   -2.1792    0.2949 C.ar      1 <0>        -0.1500
     11 C9          3.7251   -1.3844    0.1147 C.ar      1 <0>        -0.1500
     12 C10         3.5826   -0.0092   -0.0819 C.ar      1 <0>         0.1770
     13 C11         2.3069    0.5943   -0.1099 C.ar      1 <0>        -0.1440
     14 C12        -2.3050    2.1700    0.3922 C.2       1 <0>         0.9790
     15 O1         -3.3233    2.9037    0.5783 O.co2     1 <0>        -0.9000
     16 O2         -1.0843    2.5503    0.4004 O.co2     1 <0>        -0.9000
     17 C13         2.1448    2.0786   -0.3354 C.3       1 <0>         0.1440
     18 Cl1         5.0471    0.8947   -0.2810 Cl        1 <0>        -0.1770
     19 H1         -4.6866    0.8501    0.1361 H         1 <0>         0.1500
     20 H2         -5.0187   -1.5761   -0.3233 H         1 <0>         0.1500
     21 H3         -2.9902   -3.0133   -0.5792 H         1 <0>         0.1500
     22 H4          0.4810   -2.2451    0.4547 H         1 <0>         0.1500
     23 H5         -0.1975    1.3993    0.2137 H         1 <0>         0.4000
     24 H6          2.7042   -3.2495    0.4482 H         1 <0>         0.1500
     25 H7          4.7095   -1.8430    0.1301 H         1 <0>         0.1500
     26 H8          1.3702    2.2701   -1.0862 H         1 <0>         0.0000
     27 H9          3.0467    2.5603   -0.7196 H         1 <0>         0.0000
     28 H10         1.8751    2.5710    0.6048 H         1 <0>         0.0000
@<TRIPOS>BOND
     1    1    2 ar
     2    1    6 ar
     3    1   19 1
     4    2    3 ar
     5    2   20 1
     6    3    4 ar
     7    3   21 1
     8    4    5 ar
     9    5    6 ar
    10    5    9 1
    11    6   14 1
    12    7    8 ar
    13    7   10 ar
    14    7   22 1
    15    8    9 1
    16    8   13 ar
    17    9   23 1
    18   10   11 ar
    19   10   24 1
    20   11   12 ar
    21   11   25 1
    22   12   13 ar
    23   12   18 1
    24   13   17 1
    25   14   15 2
    26   14   16 1
    27   17   26 1
    28   17   27 1
    29   17   28 1
