@<TRIPOS>MOLECULE
DB09161
   20    19     0     0     0
SMALL
USER_CHARGES

@<TRIPOS>ATOM
      1 O1          1.0949    0.1802    1.0534 O.3       1 <0>        -0.5600
      2 N1         -2.3925   -0.6759    0.1663 N.2       1 <0>        -0.3690
      3 C1         -3.3193    0.0974   -0.1159 C.cat     1 <0>        -0.9650
      4 C2         -1.2272   -0.2824    0.9710 C.3       1 <0>         0.2460
      5 C3          0.0446   -0.1286    0.1063 C.3       1 <0>         0.2800
      6 C4          0.3519   -1.4484   -0.6193 C.3       1 <0>         0.0000
      7 C5         -0.1379    1.0144   -0.9037 C.3       1 <0>         0.0000
      8 C6          2.3888    0.4370    0.5324 C.3       1 <0>         0.2800
      9 H1         -3.3370    1.1038    0.2013 H         1 <0>         0.0870
     10 H2         -1.4286    0.6470    1.5196 H         1 <0>         0.0000
     11 H3         -1.0635   -1.0479    1.7400 H         1 <0>         0.0000
     12 H4         -0.4808   -1.7708   -1.2535 H         1 <0>         0.0000
     13 H5          0.5724   -2.2443    0.0997 H         1 <0>         0.0000
     14 H6          1.2288   -1.3564   -1.2684 H         1 <0>         0.0000
     15 H7         -0.9971    0.8488   -1.5604 H         1 <0>         0.0000
     16 H8          0.7395    1.1236   -1.5509 H         1 <0>         0.0000
     17 H9         -0.2716    1.9715   -0.3873 H         1 <0>         0.0000
     18 H10         3.0588    0.6135    1.3792 H         1 <0>         0.0000
     19 H11         2.3981    1.3367   -0.0862 H         1 <0>         0.0000
     20 H12         2.7778   -0.4192   -0.0236 H         1 <0>         0.0000
@<TRIPOS>BOND
     1    1    5 1
     2    1    8 1
     3    2    3 2
     4    2    4 1
     5    3    9 1
     6    4    5 1
     7    4   10 1
     8    4   11 1
     9    5    6 1
    10    5    7 1
    11    6   12 1
    12    6   13 1
    13    6   14 1
    14    7   15 1
    15    7   16 1
    16    7   17 1
    17    8   18 1
    18    8   19 1
    19    8   20 1
