@<TRIPOS>MOLECULE
DB09115
   18    19     0     0     0
SMALL
USER_CHARGES

@<TRIPOS>ATOM
      1 C1         -2.3474   -0.3960   -0.0001 C.ar      1 <0>         0.0810
      2 C2         -2.2157    0.9890   -0.0003 C.ar      1 <0>        -0.1500
      3 C3         -0.9381    1.5652   -0.0002 C.ar      1 <0>         0.0810
      4 C4          0.2335    0.7592    0.0001 C.ar      1 <0>         0.0000
      5 C5          0.0756   -0.6438    0.0004 C.ar      1 <0>         0.3100
      6 C6         -1.2030   -1.1894    0.0001 C.ar      1 <0>         0.0820
      7 C7          1.5691    1.2265   -0.0003 C.ar      1 <0>        -0.1500
      8 C8          2.6389    0.3370   -0.0003 C.ar      1 <0>        -0.1500
      9 C9          2.3569   -1.0132    0.0001 C.ar      1 <0>         0.1600
     10 N1          1.1047   -1.5155    0.0004 N.ar      1 <0>        -0.6200
     11 O1         -1.2925   -2.5641    0.0002 O.3       1 <0>        -0.5320
     12 I1         -4.2646   -1.2196   -0.0000 I         1 <0>        -0.0810
     13 I2         -0.8750    3.6730    0.0002 I         1 <0>        -0.0810
     14 H1         -3.1021    1.6193   -0.0001 H         1 <0>         0.1500
     15 H2          1.7967    2.2887    0.0003 H         1 <0>         0.1500
     16 H3          3.6634    0.6934   -0.0001 H         1 <0>         0.1500
     17 H4          3.1535   -1.7514   -0.0002 H         1 <0>         0.1500
     18 H5         -0.3538   -2.8585   -0.0003 H         1 <0>         0.4500
@<TRIPOS>BOND
     1    1    2 ar
     2    1    6 ar
     3    1   12 1
     4    2    3 ar
     5    2   14 1
     6    3    4 ar
     7    3   13 1
     8    4    5 ar
     9    4    7 ar
    10    5    6 ar
    11    5   10 ar
    12    6   11 1
    13    7    8 ar
    14    7   15 1
    15    8    9 ar
    16    8   16 1
    17    9   10 ar
    18    9   17 1
    19   11   18 1
