@<TRIPOS>MOLECULE
DB09277
   22    20     0     0     0
SMALL
USER_CHARGES

@<TRIPOS>ATOM
      1 N1          0.8883   -0.0166   -0.0004 N.4       1 <0>        -1.0120
      2 O1         -2.7313    1.1440   -0.0063 O.3       1 <0>        -0.6800
      3 H1         -3.5803    0.6248   -0.0091 H         1 <0>         0.4000
      4 C1         -0.3461    0.9090    0.0006 C.3       1 <0>         0.5030
      5 H2         -0.2727    1.5502   -0.8871 H         1 <0>         0.0000
      6 H3         -0.2639    1.5614    0.8786 H         1 <0>         0.0000
      7 C2         -1.6865    0.1778    0.0130 C.3       1 <0>         0.2800
      8 H4         -1.8028   -0.4602   -0.8664 H         1 <0>         0.0000
      9 H5         -1.8035   -0.4257    0.9173 H         1 <0>         0.0000
     10 Cl1        -5.2182   -0.7826   -0.0139 Cl        1 <0>        -1.0000
     11 C3          2.1351    0.8705   -0.0123 C.3       1 <0>         0.5030
     12 H6          2.1213    1.4978    0.8844 H         1 <0>         0.0000
     13 H7          2.1122    1.4884   -0.9142 H         1 <0>         0.0000
     14 H8          3.0208    0.2272   -0.0129 H         1 <0>         0.0000
     15 C4          0.9259   -0.8873    1.2494 C.3       1 <0>         0.5030
     16 H9          1.8753   -1.4329    1.2605 H         1 <0>         0.0000
     17 H10         0.8472   -0.2391    2.1262 H         1 <0>         0.0000
     18 H11         0.0950   -1.5966    1.2138 H         1 <0>         0.0000
     19 C5          0.9135   -0.8995   -1.2433 C.3       1 <0>         0.5030
     20 H12         0.8220   -0.2589   -2.1252 H         1 <0>         0.0000
     21 H13         0.0853   -1.6097   -1.1914 H         1 <0>         0.0000
     22 H14         1.8634   -1.4420   -1.2612 H         1 <0>         0.0000
@<TRIPOS>BOND
     1    1    4 1
     2    1   11 1
     3    1   15 1
     4    1   19 1
     5    2    3 1
     6    2    7 1
     7    4    5 1
     8    4    6 1
     9    4    7 1
    10    7    8 1
    11    7    9 1
    12   11   12 1
    13   11   13 1
    14   11   14 1
    15   15   16 1
    16   15   17 1
    17   15   18 1
    18   19   20 1
    19   19   21 1
    20   19   22 1
