@<TRIPOS>MOLECULE
DB09276
   15    13     0     0     0
SMALL
USER_CHARGES

@<TRIPOS>ATOM
      1 C1          2.0930   -0.0982   -0.2066 C.2       1 <0>         0.6590
      2 C2          0.7743    0.5782    0.0478 C.3       1 <0>         0.0610
      3 H1          0.6971    1.4012   -0.6738 H         1 <0>         0.0000
      4 H2          0.7866    1.0211    1.0520 H         1 <0>         0.0000
      5 C3         -1.7274    0.3621   -0.1000 C.2       1 <0>         0.9060
      6 C4         -0.4036   -0.3749   -0.1159 C.3       1 <0>         0.1240
      7 H3         -0.3189   -0.9603   -1.0382 H         1 <0>         0.0000
      8 O1         -1.8282    1.4715    0.5032 O.co2     1 <0>        -0.9000
      9 S1         -0.5343   -1.5245    1.2988 S.3       1 <0>        -0.2400
     10 Au1        -2.2420   -2.7786    0.3981 Au        1 <0>         0.0100
     11 O2          2.2948   -1.0867   -0.8898 O.2       1 <0>        -0.5700
     12 O3         -2.7126   -0.1369   -0.7238 O.co2     1 <0>        -0.9000
     13 Na1        -3.9099    1.5292   -0.0800 Na        1 <0>         1.0000
     14 O4          3.1159    0.5540    0.3859 O.3       1 <0>        -0.6500
     15 H4          3.9150    0.0427    0.1422 H         1 <0>         0.5000
@<TRIPOS>BOND
     1    1    2 1
     2    1   11 2
     3    1   14 1
     4    2    3 1
     5    2    4 1
     6    2    6 1
     7    5    6 1
     8    5    8 2
     9    5   12 1
    10    6    7 1
    11    6    9 1
    12    9   10 1
    13   14   15 1
