@<TRIPOS>MOLECULE
DB09147
    9     8     0     0     0
SMALL
USER_CHARGES

@<TRIPOS>ATOM
      1 O1         -1.8341    1.4287    0.4365 O.2       1 <0>        -1.0330
      2 O2         -2.3567   -0.3941   -1.2431 O.3       1 <0>        -1.0330
      3 P1         -1.5271   -0.0007   -0.0130 P.3       1 <0>         1.3710
      4 O3         -1.6308   -1.0376    1.1026 O.3       1 <0>        -1.0330
      5 O4          0.0005   -0.0017   -0.5671 O.3       1 <0>        -0.5420
      6 P2          1.5279    0.0004   -0.0124 P.3       1 <0>         1.3710
      7 O5          1.8345   -1.4268    0.4430 O.2       1 <0>        -1.0330
      8 O6          1.6289    1.0431    1.0982 O.3       1 <0>        -1.0330
      9 O7          2.3568    0.3887   -1.2446 O.3       1 <0>        -1.0330
@<TRIPOS>BOND
     1    1    3 2
     2    2    3 1
     3    3    4 1
     4    3    5 1
     5    5    6 1
     6    6    7 2
     7    6    8 1
     8    6    9 1
