@<TRIPOS>MOLECULE
DB09127
    5     4     0     0     0
SMALL
USER_CHARGES

@<TRIPOS>ATOM
      1 O1         -1.0588   -1.0592    0.0702 O.2       1 <0>        -1.0750
      2 P1         -0.0005    0.0000   -0.2808 P.3       1 <0>         1.3000
      3 O2         -1.0588    1.0592    0.0702 O.3       1 <0>        -1.0750
      4 O3          1.0591   -1.0585    0.0702 O.3       1 <0>        -1.0750
      5 O4          1.0591    1.0585    0.0702 O.3       1 <0>        -1.0750
@<TRIPOS>BOND
     1    1    2 2
     2    2    3 1
     3    2    4 1
     4    2    5 1
