@<TRIPOS>MOLECULE
DB09242
   29    30     0     0     0
SMALL
USER_CHARGES

@<TRIPOS>ATOM
      1 C1          4.7805    0.2364    0.0395 C.3       1 <0>         0.1440
      2 C2          0.9627   -2.6052   -0.0559 C.3       1 <0>         0.2800
      3 C3         -4.2080    0.3639    0.0082 C.3       1 <0>         0.3280
      4 C4         -3.4678   -0.9771    0.0570 C.3       1 <0>         0.3280
      5 C5          3.3141    0.5304    0.0106 C.ar      1 <0>         0.4770
      6 C6          0.6034    1.0247   -0.0171 C.ar      1 <0>         0.3110
      7 C7          1.5923    2.0074   -0.0111 C.ar      1 <0>         0.4870
      8 C8          1.1377   -0.2542   -0.0114 C.ar      1 <0>         0.3920
      9 C9         -1.9188    0.7375   -0.0073 C.cat     1 <0>         1.2000
     10 Cl1         1.1667    3.6825   -0.0213 Cl        1 <0>        -0.1770
     11 N1         -3.1479    1.3747   -0.0291 N.pl3     1 <0>        -0.8440
     12 N2         -2.0535   -0.6163    0.0416 N.pl3     1 <0>        -0.8440
     13 N3          2.9246    1.8082    0.0037 N.ar      1 <0>        -0.6200
     14 N4          2.4687   -0.5135    0.0048 N.ar      1 <0>        -0.6200
     15 N5         -0.7755    1.4563   -0.0319 N.pl3     1 <0>        -0.8280
     16 O1          0.2873   -1.3428   -0.0237 O.3       1 <0>        -0.3630
     17 H1          5.3684    1.1536   -0.0668 H         1 <0>         0.0000
     18 H2          5.0438   -0.4390   -0.7815 H         1 <0>         0.0000
     19 H3          5.0456   -0.2396    0.9877 H         1 <0>         0.0000
     20 H4          0.1967   -3.3868   -0.0750 H         1 <0>         0.0000
     21 H5          1.5672   -2.7524    0.8454 H         1 <0>         0.0000
     22 H6          1.5661   -2.7076   -0.9640 H         1 <0>         0.0000
     23 H7         -4.8232    0.5211    0.8990 H         1 <0>         0.0000
     24 H8         -4.8256    0.4558   -0.8899 H         1 <0>         0.0000
     25 H9         -3.6929   -1.5966   -0.8163 H         1 <0>         0.0000
     26 H10        -3.6905   -1.5313    0.9726 H         1 <0>         0.0000
     27 H11        -3.2732    2.3774   -0.0661 H         1 <0>         0.4500
     28 H12        -1.2460   -1.2342    0.0522 H         1 <0>         0.4500
     29 H13        -0.9030    2.4669   -0.0541 H         1 <0>         0.4500
@<TRIPOS>BOND
     1    1    5 1
     2    1   17 1
     3    1   18 1
     4    1   19 1
     5    2   16 1
     6    2   20 1
     7    2   21 1
     8    2   22 1
     9    3    4 1
    10    3   11 1
    11    3   23 1
    12    3   24 1
    13    4   12 1
    14    4   25 1
    15    4   26 1
    16    5   13 ar
    17    5   14 ar
    18    6    7 ar
    19    6    8 ar
    20    6   15 1
    21    7   10 1
    22    7   13 ar
    23    8   14 ar
    24    8   16 1
    25    9   11 1
    26    9   12 1
    27    9   15 1
    28   11   27 1
    29   12   28 1
    30   15   29 1
