@<TRIPOS>MOLECULE
DB09294
   12    10     0     0     0
SMALL
USER_CHARGES

@<TRIPOS>ATOM
      1 C1          1.4338   -0.5244   -0.2196 C.3       1 <0>         0.0000
      2 H1          1.4205   -1.5334    0.2040 H         1 <0>         0.0000
      3 H2          2.4344   -0.1013   -0.0827 H         1 <0>         0.0000
      4 H3          1.2703   -0.6047   -1.3002 H         1 <0>         0.0000
      5 C2          0.3897    0.3633    0.4207 C.3       1 <0>         0.1740
      6 H4          0.5512    0.4390    1.5008 H         1 <0>         0.0000
      7 O1          0.4952    1.6900   -0.1311 O.3       1 <0>        -0.6800
      8 H5         -0.4366    1.9166   -0.3701 H         1 <0>         0.4000
      9 C3         -1.0247   -0.1418    0.1615 C.2       1 <0>         0.9060
     10 O2         -1.8511    0.7239   -0.2760 O.co2     1 <0>        -0.9000
     11 O3         -1.3408   -1.3427    0.3773 O.co2     1 <0>        -0.9000
     12 Na1        -3.3420   -0.8844   -0.2844 Na        1 <0>         1.0000
@<TRIPOS>BOND
     1    1    2 1
     2    1    3 1
     3    1    4 1
     4    1    5 1
     5    5    6 1
     6    5    7 1
     7    5    9 1
     8    7    8 1
     9    9   10 2
    10    9   11 1
