@<TRIPOS>MOLECULE
DB09087
    5     4     0     0     0
SMALL
USER_CHARGES

@<TRIPOS>ATOM
      1 O1          1.0129    1.0133    0.0718 O.2       1 <0>        -0.9000
      2 S1          0.0003   -0.0000   -0.2872 S.o2      1 <0>         1.6000
      3 O2         -1.0131   -1.0126    0.0718 O.2       1 <0>        -0.9000
      4 O3          1.0129   -1.0133    0.0718 O.3       1 <0>        -0.9000
      5 O4         -1.0131    1.0126    0.0718 O.3       1 <0>        -0.9000
@<TRIPOS>BOND
     1    1    2 2
     2    2    3 2
     3    2    4 1
     4    2    5 1
