@<TRIPOS>MOLECULE
DB09116
   18    17     0     0     0
SMALL
USER_CHARGES

@<TRIPOS>ATOM
      1 C1          1.3988    0.0449    0.6031 C.3       1 <0>        -0.1060
      2 C2         -0.0381   -0.3689    0.2487 C.3       1 <0>         0.1740
      3 C3         -0.9939    0.8103    0.1084 C.3       1 <0>        -0.1060
      4 C4          2.2146    0.9145   -0.3562 C.2       1 <0>         0.9060
      5 O1          1.8467    2.1196   -0.4590 O.co2     1 <0>        -0.9000
      6 O2          3.2422    0.3583   -0.8456 O.co2     1 <0>        -0.9000
      7 C5          0.0168   -1.3361   -0.9826 C.2       1 <0>         0.9060
      8 O3         -0.0250   -2.5619   -0.6170 O.co2     1 <0>        -0.9000
      9 O4          0.1045   -0.8340   -2.1349 O.co2     1 <0>        -0.9000
     10 C6         -2.4848    0.5564   -0.1484 C.2       1 <0>         0.9060
     11 O5         -2.8623   -0.6304   -0.3439 O.co2     1 <0>        -0.9000
     12 O6         -3.1984    1.6085   -0.1219 O.co2     1 <0>        -0.9000
     13 O7         -0.4648   -1.1783    1.3887 O.3       1 <0>        -0.6800
     14 H1          1.9843   -0.8628    0.8092 H         1 <0>         0.0000
     15 H2          1.3851    0.5723    1.5687 H         1 <0>         0.0000
     16 H3         -0.6633    1.4565   -0.7139 H         1 <0>         0.0000
     17 H4         -0.9483    1.4076    1.0298 H         1 <0>         0.0000
     18 H5         -0.5144   -2.0764    0.9666 H         1 <0>         0.4000
@<TRIPOS>BOND
     1    1    2 1
     2    1    4 1
     3    1   14 1
     4    1   15 1
     5    2    3 1
     6    2    7 1
     7    2   13 1
     8    3   10 1
     9    3   16 1
    10    3   17 1
    11    4    5 2
    12    4    6 1
    13    7    8 2
    14    7    9 1
    15   10   11 2
    16   10   12 1
    17   13   18 1
