@<TRIPOS>MOLECULE
DB09125
   18    17     0     0     0
SMALL
USER_CHARGES

@<TRIPOS>ATOM
      1 C1          0.0024    0.4007   -0.2043 C.3       1 <0>         0.1740
      2 C2         -1.4183   -0.0192   -0.6164 C.3       1 <0>        -0.1060
      3 C3         -2.3609   -0.7120    0.3680 C.2       1 <0>         0.9060
      4 C4         -0.0409    1.4794    0.9489 C.2       1 <0>         0.9060
      5 C5          0.8916   -0.8225    0.1098 C.3       1 <0>        -0.1060
      6 C6          2.4039   -0.5603    0.0374 C.2       1 <0>         0.9060
      7 O1          0.5502    1.0444   -1.4002 O.3       1 <0>        -0.6800
      8 O2         -1.9072   -1.0057    1.5059 O.co2     1 <0>        -0.9000
      9 O3         -3.5152   -0.9542   -0.1036 O.co2     1 <0>        -0.9000
     10 O4          3.1408   -1.3985    0.6314 O.co2     1 <0>        -0.9000
     11 O5          2.7360    0.4213   -0.7059 O.co2     1 <0>        -0.9000
     12 O6         -0.9381    2.3738    0.8444 O.co2     1 <0>        -0.9000
     13 O7          0.8511    1.3849    1.8448 O.co2     1 <0>        -0.9000
     14 H1         -1.3438   -0.6791   -1.4927 H         1 <0>         0.0000
     15 H2         -1.9547    0.8650   -0.9913 H         1 <0>         0.0000
     16 H3          0.7028   -1.6135   -0.6286 H         1 <0>         0.0000
     17 H4          0.6537   -1.2332    1.0966 H         1 <0>         0.0000
     18 H5          1.5465    1.0286   -1.2442 H         1 <0>         0.4000
@<TRIPOS>BOND
     1    1    2 1
     2    1    4 1
     3    1    5 1
     4    1    7 1
     5    2    3 1
     6    2   14 1
     7    2   15 1
     8    3    8 2
     9    3    9 1
    10    4   12 2
    11    4   13 1
    12    5    6 1
    13    5   16 1
    14    5   17 1
    15    6   10 2
    16    6   11 1
    17    7   18 1
