@<TRIPOS>MOLECULE
DB09221
   29    29     0     0     0
SMALL
USER_CHARGES

@<TRIPOS>ATOM
      1 C1         -3.2801    0.9664    0.5934 C.3       1 <0>         0.0610
      2 C2         -1.8937    0.8786    1.2009 C.2       1 <0>         0.2890
      3 N1         -0.9631    0.8658    0.2386 N.2       1 <0>        -0.7300
      4 C3          0.3376    0.1707    0.4093 C.3       1 <0>        -0.1560
      5 C4          0.2009   -1.3814    0.2719 C.2       1 <0>         0.9060
      6 O1         -0.8531   -1.8098   -0.3120 O.co2     1 <0>        -0.9000
      7 O2          1.1856   -2.0507    0.7140 O.co2     1 <0>        -0.9000
      8 O3         -1.7318    0.7767    2.4123 O.2       1 <0>        -0.5700
      9 C5          1.3177    0.6454   -0.6831 C.3       1 <0>         0.1800
     10 C6          2.7608    0.4439   -0.3440 C.2       1 <0>        -0.3320
     11 C7          3.8869    1.2113   -0.5421 C.2       1 <0>         0.0770
     12 N2          5.0097    0.5773   -0.0693 N.2       1 <0>        -0.5650
     13 C8          4.5768   -0.5639    0.4192 C.2       1 <0>         0.0370
     14 N3          3.2278   -0.6902    0.2796 N.pl3     1 <0>         0.0330
     15 C9         -3.6428   -0.3312   -0.1204 C.3       1 <0>         0.5030
     16 N4         -2.6160   -0.6596   -1.1233 N.4       1 <0>        -0.8530
     17 H1         -4.0019    1.1617    1.3943 H         1 <0>         0.0000
     18 H2         -3.3292    1.8245   -0.0896 H         1 <0>         0.0000
     19 H3          0.7570    0.3887    1.4011 H         1 <0>         0.0000
     20 H4          1.1716    1.7184   -0.8681 H         1 <0>         0.0000
     21 H5          1.1094    0.1394   -1.6347 H         1 <0>         0.0000
     22 H6          3.9469    2.1864   -1.0048 H         1 <0>         0.1500
     23 H7          5.1838   -1.3281    0.8834 H         1 <0>         0.1500
     24 H8          2.6227   -1.4690    0.5750 H         1 <0>         0.2700
     25 H9         -4.5929   -0.2304   -0.6535 H         1 <0>         0.0000
     26 H10        -3.7014   -1.1795    0.5681 H         1 <0>         0.0000
     27 H11        -1.9110    0.1081   -1.1557 H         1 <0>         0.4500
     28 H12        -2.8809   -0.9915   -2.0466 H         1 <0>         0.4500
     29 H13        -1.8974   -1.3782   -0.7141 H         1 <0>         0.4500
@<TRIPOS>BOND
     1    1    2 1
     2    1   15 1
     3    1   17 1
     4    1   18 1
     5    2    3 1
     6    2    8 2
     7    3    4 1
     8    4    5 1
     9    4    9 1
    10    4   19 1
    11    5    6 2
    12    5    7 1
    13    9   10 1
    14    9   20 1
    15    9   21 1
    16   10   11 2
    17   10   14 1
    18   11   12 1
    19   11   22 1
    20   12   13 2
    21   13   14 1
    22   13   23 1
    23   14   24 1
    24   15   16 1
    25   15   25 1
    26   15   26 1
    27   16   27 1
    28   16   28 1
    29   16   29 1
