@<TRIPOS>MOLECULE
DB09154
   18    17     0     0     0
SMALL
USER_CHARGES

@<TRIPOS>ATOM
      1 C1         -0.7683   -0.8444    0.3169 C.3       1 <0>        -0.1060
      2 C2         -2.2350   -0.8074   -0.1367 C.2       1 <0>         0.9060
      3 O1         -3.0430   -1.5065    0.5379 O.co2     1 <0>        -0.9000
      4 O2         -2.4433   -0.1306   -1.1973 O.co2     1 <0>        -0.9000
      5 C3          0.0092    0.3963   -0.1506 C.3       1 <0>         0.1740
      6 C4          1.5059    0.3726    0.2011 C.3       1 <0>        -0.1060
      7 C5          2.2989   -0.8929   -0.1324 C.2       1 <0>         0.9060
      8 O3          2.1952   -1.8376    0.7049 O.co2     1 <0>        -0.9000
      9 O4          3.0419   -0.8314   -1.1554 O.co2     1 <0>        -0.9000
     10 C6         -0.5191    1.7284    0.5252 C.2       1 <0>         0.9060
     11 O5         -0.2777    2.8121   -0.0910 O.co2     1 <0>        -0.9000
     12 O6         -1.0907    1.5914    1.6494 O.co2     1 <0>        -0.9000
     13 O7         -0.1313    0.4938   -1.5896 O.3       1 <0>        -0.6800
     14 H1         -0.3519   -1.7497   -0.1429 H         1 <0>         0.0000
     15 H2         -0.7157   -0.9639    1.4050 H         1 <0>         0.0000
     16 H3          1.6379    0.5478    1.2776 H         1 <0>         0.0000
     17 H4          2.0105    1.2100   -0.3037 H         1 <0>         0.0000
     18 H5         -1.1235    0.4119   -1.7182 H         1 <0>         0.4000
@<TRIPOS>BOND
     1    1    2 1
     2    1    5 1
     3    1   14 1
     4    1   15 1
     5    2    3 2
     6    2    4 1
     7    5    6 1
     8    5   10 1
     9    5   13 1
    10    6    7 1
    11    6   16 1
    12    6   17 1
    13    7    8 2
    14    7    9 1
    15   10   11 2
    16   10   12 1
    17   13   18 1
