@<TRIPOS>MOLECULE
DB09243
   18    18     0     0     0
SMALL
USER_CHARGES

@<TRIPOS>ATOM
      1 O1         -3.3465   -1.5169    0.0047 O.2       1 <0>        -0.5700
      2 N1          2.6228    0.7510    0.0008 N.pl3     1 <0>        -0.5110
      3 N2          0.3553    1.3986    0.0016 N.ar      1 <0>        -0.3100
      4 N3         -0.9938    1.1284    0.0016 N.ar      1 <0>        -0.3100
      5 N4          3.6502   -0.1839    0.0009 N.3       1 <0>        -0.7090
      6 N5         -3.6616    0.7383   -0.0018 N.am      1 <0>        -0.8000
      7 C1          1.2675    0.3978    0.0002 C.ar      1 <0>         0.4100
      8 C2         -1.4091   -0.1571    0.0001 C.ar      1 <0>         0.3960
      9 C3          0.8400   -0.9265   -0.0007 C.ar      1 <0>        -0.1500
     10 C4         -0.5215   -1.2163   -0.0001 C.ar      1 <0>        -0.1500
     11 C5         -2.8739   -0.3851    0.0011 C.2       1 <0>         0.5440
     12 H1          2.7972    1.7544    0.0018 H         1 <0>         0.4000
     13 H2          4.2535   -0.0524    0.8155 H         1 <0>         0.3600
     14 H3          4.2486   -0.0565   -0.8189 H         1 <0>         0.3600
     15 H4         -4.6688    0.6410   -0.0004 H         1 <0>         0.3700
     16 H5         -3.2529    1.6670   -0.0042 H         1 <0>         0.3700
     17 H6          1.5622   -1.7378   -0.0014 H         1 <0>         0.1500
     18 H7         -0.8692   -2.2438   -0.0007 H         1 <0>         0.1500
@<TRIPOS>BOND
     1    1   11 2
     2    2    5 1
     3    2    7 1
     4    2   12 1
     5    3    4 ar
     6    3    7 ar
     7    4    8 ar
     8    5   13 1
     9    5   14 1
    10    6   11 am
    11    6   15 1
    12    6   16 1
    13    7    9 ar
    14    8   10 ar
    15    8   11 1
    16    9   10 ar
    17    9   17 1
    18   10   18 1
