@<TRIPOS>MOLECULE
DB09041
   17    18     0     0     0
SMALL
USER_CHARGES

@<TRIPOS>ATOM
      1 C1          2.0646    1.0237   -0.0144 C.ar      1 <0>        -0.1500
      2 C2          2.2672   -0.3598    0.0917 C.ar      1 <0>         0.1900
      3 C3          1.2016   -1.2584    0.0779 C.ar      1 <0>        -0.1500
      4 C4         -0.0738   -0.7383   -0.0402 C.ar      1 <0>        -0.1440
      5 C5         -0.2766    0.6319   -0.1375 C.ar      1 <0>        -0.1270
      6 C6          0.7710    1.5325   -0.1356 C.ar      1 <0>        -0.1500
      7 F1          3.5178   -0.8283    0.2049 F         1 <0>        -0.1900
      8 C7         -1.3866   -1.4379   -0.0959 C.3       1 <0>         0.4240
      9 O1         -2.4115   -0.4092   -0.1448 O.3       1 <0>        -0.6300
     10 B1         -1.7850    0.7945   -0.2827 B         1 <0>         0.8280
     11 O2         -2.4549    1.8102    0.2733 O.3       1 <0>        -0.7500
     12 H1          2.9201    1.6905   -0.0026 H         1 <0>         0.1500
     13 H2          1.3828   -2.3240    0.1562 H         1 <0>         0.1500
     14 H3          0.5940    2.5998   -0.2216 H         1 <0>         0.1500
     15 H4         -1.5556   -2.0443    0.7989 H         1 <0>         0.0000
     16 H5         -1.4742   -2.0544   -0.9964 H         1 <0>         0.0000
     17 H6         -3.3010    1.3716    0.4689 H         1 <0>         0.4000
@<TRIPOS>BOND
     1    1    2 ar
     2    1    6 ar
     3    1   12 1
     4    2    3 ar
     5    2    7 1
     6    3    4 ar
     7    3   13 1
     8    4    5 ar
     9    4    8 1
    10    5    6 ar
    11    5   10 1
    12    6   14 1
    13    8    9 1
    14    8   15 1
    15    8   16 1
    16    9   10 1
    17   10   11 1
    18   11   17 1
